<?xml version="1.0" encoding="UTF-8"?>

<!-- generated on 2026-01-06T14:08:07.605510+07:00 by Eclipse SUMO sumo 1.25.0
-->

<sumoConfiguration xmlns:xsi="http://www.w3.org/2001/XMLSchema-instance" xsi:noNamespaceSchemaLocation="http://sumo.dlr.de/xsd/sumoConfiguration.xsd">

    <input>
        <net-file value="network.net.xml"/>
        <route-files value="random_simple.rou.xml"/>
    </input>

</sumoConfiguration>
