<?xml version="1.0" encoding="UTF-8"?>
<routes>
    <vType id="passenger" accel="2.6" decel="4.5" sigma="0.5" length="5.0" minGap="2.5" maxSpeed="50.0" color="1,0,0"/>
    <vType id="bus" accel="1.2" decel="4.0" sigma="0.5" length="12.0" minGap="3.0" maxSpeed="30.0" color="0,0,1"/>
    <vType id="truck" accel="1.5" decel="3.5" sigma="0.5" length="10.0" minGap="3.0" maxSpeed="40.0" color="0,1,0"/>
    <vType id="motorcycle" accel="3.0" decel="5.0" sigma="0.5" length="2.5" minGap="1.5" maxSpeed="55.0" color="1,1,0"/>
    <vehicle id="veh_72" type="passenger" depart="3.71">
        <route edges="-E5 E4"/>
    </vehicle>
    <vehicle id="veh_71" type="passenger" depart="4.88">
        <route edges="-E3 E2 E6"/>
    </vehicle>
    <vehicle id="veh_76" type="passenger" depart="5.19">
        <route edges="-E4 -E2 E3"/>
    </vehicle>
    <vehicle id="veh_60" type="passenger" depart="10.72">
        <route edges="-E1 E2 E5"/>
    </vehicle>
    <vehicle id="veh_5" type="passenger" depart="10.77">
        <route edges="E0 E3"/>
    </vehicle>
    <vehicle id="veh_22" type="bus" depart="12.04">
        <route edges="E2 E6"/>
    </vehicle>
    <vehicle id="veh_67" type="motorcycle" depart="14.79">
        <route edges="E2 E5"/>
    </vehicle>
    <vehicle id="veh_43" type="passenger" depart="31.24">
        <route edges="-E2 E3"/>
    </vehicle>
    <vehicle id="veh_64" type="passenger" depart="31.74">
        <route edges="-E2 E3"/>
    </vehicle>
    <vehicle id="veh_11" type="passenger" depart="36.47">
        <route edges="-E1 E2 E6"/>
    </vehicle>
    <vehicle id="veh_85" type="truck" depart="46.84">
        <route edges="-E5 -E2 E1"/>
    </vehicle>
    <vehicle id="veh_13" type="passenger" depart="47.34">
        <route edges="-E5 E4"/>
    </vehicle>
    <vehicle id="veh_66" type="passenger" depart="62.94">
        <route edges="-E5 E6"/>
    </vehicle>
    <vehicle id="veh_69" type="bus" depart="63.49">
        <route edges="-E1 E2 E5"/>
    </vehicle>
    <vehicle id="veh_20" type="passenger" depart="65.06">
        <route edges="E2 E5"/>
    </vehicle>
    <vehicle id="veh_10" type="passenger" depart="80.22">
        <route edges="E0 E2 E4"/>
    </vehicle>
    <vehicle id="veh_81" type="truck" depart="82.02">
        <route edges="-E5 -E2 E1"/>
    </vehicle>
    <vehicle id="veh_36" type="bus" depart="83.48">
        <route edges="-E6 E4"/>
    </vehicle>
    <vehicle id="veh_40" type="bus" depart="84.69">
        <route edges="-E2 E3"/>
    </vehicle>
    <vehicle id="veh_19" type="passenger" depart="92.99">
        <route edges="-E4 -E2 -E0"/>
    </vehicle>
    <vehicle id="veh_34" type="bus" depart="97.47">
        <route edges="-E1 -E0"/>
    </vehicle>
    <vehicle id="veh_80" type="truck" depart="97.6">
        <route edges="-E4 -E2 E3"/>
    </vehicle>
    <vehicle id="veh_4" type="passenger" depart="110.94">
        <route edges="-E1 -E0"/>
    </vehicle>
    <vehicle id="veh_23" type="passenger" depart="113.69">
        <route edges="-E1 E2 E6"/>
    </vehicle>
    <vehicle id="veh_14" type="truck" depart="117.8">
        <route edges="-E2 E3"/>
    </vehicle>
    <vehicle id="veh_16" type="passenger" depart="120.25">
        <route edges="-E4 -E2 -E0"/>
    </vehicle>
    <vehicle id="veh_37" type="passenger" depart="123.25">
        <route edges="-E1 -E0"/>
    </vehicle>
    <vehicle id="veh_55" type="passenger" depart="124.51">
        <route edges="-E3 E2 E4"/>
    </vehicle>
    <vehicle id="veh_82" type="passenger" depart="139.94">
        <route edges="E2 E6"/>
    </vehicle>
    <vehicle id="veh_24" type="motorcycle" depart="142.36">
        <route edges="-E2 E1"/>
    </vehicle>
    <vehicle id="veh_52" type="passenger" depart="142.92">
        <route edges="-E2 E3"/>
    </vehicle>
    <vehicle id="veh_46" type="passenger" depart="145.45">
        <route edges="-E1 E2 E6"/>
    </vehicle>
    <vehicle id="veh_15" type="passenger" depart="148.65">
        <route edges="-E6 -E2 -E0"/>
    </vehicle>
    <vehicle id="veh_38" type="passenger" depart="156.22">
        <route edges="E2 E5"/>
    </vehicle>
    <vehicle id="veh_74" type="passenger" depart="156.51">
        <route edges="E2 E4"/>
    </vehicle>
    <vehicle id="veh_63" type="motorcycle" depart="162.84">
        <route edges="-E5 E4"/>
    </vehicle>
    <vehicle id="veh_9" type="passenger" depart="172.14">
        <route edges="-E6 -E2 -E0"/>
    </vehicle>
    <vehicle id="veh_59" type="motorcycle" depart="172.88">
        <route edges="E2 E5"/>
    </vehicle>
    <vehicle id="veh_48" type="passenger" depart="173.47">
        <route edges="E0 E3"/>
    </vehicle>
    <vehicle id="veh_28" type="passenger" depart="177.09">
        <route edges="-E6 E4"/>
    </vehicle>
    <vehicle id="veh_1" type="bus" depart="178.85">
        <route edges="E2 E5"/>
    </vehicle>
    <vehicle id="veh_62" type="passenger" depart="187.97">
        <route edges="-E4 -E2 -E0"/>
    </vehicle>
    <vehicle id="veh_87" type="passenger" depart="188.61">
        <route edges="-E3 E2 E4"/>
    </vehicle>
    <vehicle id="veh_17" type="bus" depart="191.97">
        <route edges="-E5 E6"/>
    </vehicle>
    <vehicle id="veh_6" type="passenger" depart="198.94">
        <route edges="-E1 E2 E6"/>
    </vehicle>
    <vehicle id="veh_84" type="passenger" depart="200.8">
        <route edges="E2 E4"/>
    </vehicle>
    <vehicle id="veh_32" type="passenger" depart="201.63">
        <route edges="-E3 E2 E4"/>
    </vehicle>
    <vehicle id="veh_2" type="passenger" depart="209.23">
        <route edges="E2 E5"/>
    </vehicle>
    <vehicle id="veh_27" type="passenger" depart="215.75">
        <route edges="E0 E2 E5"/>
    </vehicle>
    <vehicle id="veh_39" type="motorcycle" depart="227.27">
        <route edges="-E1 -E0"/>
    </vehicle>
    <vehicle id="veh_18" type="passenger" depart="228.34">
        <route edges="E0 E2 E5"/>
    </vehicle>
    <vehicle id="veh_56" type="motorcycle" depart="229.27">
        <route edges="-E3 E2 E6"/>
    </vehicle>
    <vehicle id="veh_58" type="passenger" depart="234.04">
        <route edges="-E5 E6"/>
    </vehicle>
    <vehicle id="veh_26" type="passenger" depart="242.93">
        <route edges="E2"/>
    </vehicle>
    <vehicle id="veh_47" type="passenger" depart="243.72">
        <route edges="E0 E2 E4"/>
    </vehicle>
    <vehicle id="veh_78" type="passenger" depart="243.96">
        <route edges="-E2 E1"/>
    </vehicle>
    <vehicle id="veh_30" type="passenger" depart="258.06">
        <route edges="-E4 -E2 E3"/>
    </vehicle>
    <vehicle id="veh_42" type="bus" depart="262.27">
        <route edges="E0 E2 E5"/>
    </vehicle>
    <vehicle id="veh_44" type="passenger" depart="265.18">
        <route edges="-E5 -E2 E1"/>
    </vehicle>
    <vehicle id="veh_70" type="passenger" depart="267.48">
        <route edges="-E2 E1"/>
    </vehicle>
    <vehicle id="veh_45" type="passenger" depart="269.79">
        <route edges="-E3 E2 E4"/>
    </vehicle>
    <vehicle id="veh_57" type="passenger" depart="276.97">
        <route edges="-E1 E2 E6"/>
    </vehicle>
    <vehicle id="veh_77" type="passenger" depart="277.29">
        <route edges="E0 E2 E4"/>
    </vehicle>
    <vehicle id="veh_83" type="passenger" depart="281.44">
        <route edges="-E4 -E2 E3"/>
    </vehicle>
    <vehicle id="veh_53" type="passenger" depart="283.7">
        <route edges="E2 E4"/>
    </vehicle>
    <vehicle id="veh_41" type="passenger" depart="286.45">
        <route edges="-E3 E2 E6"/>
    </vehicle>
    <vehicle id="veh_65" type="passenger" depart="290.91">
        <route edges="E2"/>
    </vehicle>
    <vehicle id="veh_49" type="passenger" depart="291.24">
        <route edges="-E5 -E2 E1"/>
    </vehicle>
    <vehicle id="veh_35" type="truck" depart="307.71">
        <route edges="-E1 E2 E6"/>
    </vehicle>
    <vehicle id="veh_54" type="passenger" depart="309.43">
        <route edges="-E2 E1"/>
    </vehicle>
    <vehicle id="veh_79" type="motorcycle" depart="312.8">
        <route edges="E2 E5"/>
    </vehicle>
    <vehicle id="veh_25" type="passenger" depart="314.35">
        <route edges="-E6 -E2 -E0"/>
    </vehicle>
    <vehicle id="veh_51" type="bus" depart="316.06">
        <route edges="E2 E4"/>
    </vehicle>
    <vehicle id="veh_31" type="passenger" depart="320.93">
        <route edges="E0 E2 E5"/>
    </vehicle>
    <vehicle id="veh_86" type="passenger" depart="326.34">
        <route edges="E0 E2 E5"/>
    </vehicle>
    <vehicle id="veh_61" type="passenger" depart="331.67">
        <route edges="-E1 -E0"/>
    </vehicle>
    <vehicle id="veh_12" type="passenger" depart="348.16">
        <route edges="-E2 E1"/>
    </vehicle>
    <vehicle id="veh_21" type="bus" depart="356.04">
        <route edges="-E3 E2 E6"/>
    </vehicle>
    <vehicle id="veh_29" type="passenger" depart="359.51">
        <route edges="-E1 -E0"/>
    </vehicle>
    <vehicle id="veh_0" type="motorcycle" depart="367.43">
        <route edges="-E3 E2 E6"/>
    </vehicle>
    <vehicle id="veh_7" type="passenger" depart="369.64">
        <route edges="E2 E6"/>
    </vehicle>
    <vehicle id="veh_68" type="passenger" depart="371.28">
        <route edges="-E2 E1"/>
    </vehicle>
    <vehicle id="veh_50" type="passenger" depart="371.36">
        <route edges="-E2 E3"/>
    </vehicle>
    <vehicle id="veh_33" type="passenger" depart="380.65">
        <route edges="-E2 E1"/>
    </vehicle>
    <vehicle id="veh_73" type="passenger" depart="394.64">
        <route edges="E2 E4"/>
    </vehicle>
    <vehicle id="veh_75" type="truck" depart="395.87">
        <route edges="-E5 E6"/>
    </vehicle>
    <vehicle id="veh_3" type="bus" depart="396.32">
        <route edges="-E5 -E2 E1"/>
    </vehicle>
    <vehicle id="veh_8" type="motorcycle" depart="399.88">
        <route edges="-E6 -E2 -E0"/>
    </vehicle>
</routes>
