<?xml version="1.0" encoding="UTF-8"?>
<routes>
    <vType id="passenger" accel="2.6" decel="4.5" sigma="0.5" length="5.0" minGap="2.5" maxSpeed="50.0" color="1,0,0"/>
    <vType id="bus" accel="1.2" decel="4.0" sigma="0.5" length="12.0" minGap="3.0" maxSpeed="30.0" color="0,0,1"/>
    <vType id="truck" accel="1.5" decel="3.5" sigma="0.5" length="10.0" minGap="3.0" maxSpeed="40.0" color="0,1,0"/>
    <vType id="motorcycle" accel="3.0" decel="5.0" sigma="0.5" length="2.5" minGap="1.5" maxSpeed="55.0" color="1,1,0"/>
    <vehicle id="veh_8" type="passenger" depart="6.69">
        <route edges="-E2 E1"/>
    </vehicle>
    <vehicle id="veh_2" type="bus" depart="7.11">
        <route edges="-E5 -E2 E1"/>
    </vehicle>
    <vehicle id="veh_82" type="truck" depart="19.32">
        <route edges="E2"/>
    </vehicle>
    <vehicle id="veh_54" type="passenger" depart="20.23">
        <route edges="-E6 -E2 E3"/>
    </vehicle>
    <vehicle id="veh_0" type="passenger" depart="21.2">
        <route edges="-E6 E4"/>
    </vehicle>
    <vehicle id="veh_28" type="passenger" depart="21.28">
        <route edges="E0 E2 E4"/>
    </vehicle>
    <vehicle id="veh_26" type="passenger" depart="34.38">
        <route edges="E0 E2 E5"/>
    </vehicle>
    <vehicle id="veh_29" type="passenger" depart="38.22">
        <route edges="-E1 E2 E5"/>
    </vehicle>
    <vehicle id="veh_70" type="bus" depart="40.33">
        <route edges="-E6 -E2 E3"/>
    </vehicle>
    <vehicle id="veh_75" type="passenger" depart="43.53">
        <route edges="-E6 E4"/>
    </vehicle>
    <vehicle id="veh_48" type="truck" depart="47.67">
        <route edges="E0 E2 E5"/>
    </vehicle>
    <vehicle id="veh_5" type="passenger" depart="52.13">
        <route edges="-E4 -E2 E3"/>
    </vehicle>
    <vehicle id="veh_66" type="motorcycle" depart="67.12">
        <route edges="-E6 -E2 E3"/>
    </vehicle>
    <vehicle id="veh_22" type="passenger" depart="69.06">
        <route edges="-E3 E2 E6"/>
    </vehicle>
    <vehicle id="veh_25" type="motorcycle" depart="70.01">
        <route edges="-E5 -E2 E1"/>
    </vehicle>
    <vehicle id="veh_45" type="passenger" depart="78.92">
        <route edges="E2 E4"/>
    </vehicle>
    <vehicle id="veh_58" type="passenger" depart="86.91">
        <route edges="E2 E4"/>
    </vehicle>
    <vehicle id="veh_17" type="bus" depart="88.1">
        <route edges="E2"/>
    </vehicle>
    <vehicle id="veh_20" type="passenger" depart="88.33">
        <route edges="-E6 E4"/>
    </vehicle>
    <vehicle id="veh_51" type="passenger" depart="95.82">
        <route edges="-E2 E3"/>
    </vehicle>
    <vehicle id="veh_7" type="passenger" depart="102.46">
        <route edges="-E6 E4"/>
    </vehicle>
    <vehicle id="veh_62" type="passenger" depart="104.4">
        <route edges="E0 E3"/>
    </vehicle>
    <vehicle id="veh_50" type="passenger" depart="104.44">
        <route edges="-E5 E6"/>
    </vehicle>
    <vehicle id="veh_55" type="truck" depart="106.81">
        <route edges="-E4 -E2 -E0"/>
    </vehicle>
    <vehicle id="veh_73" type="passenger" depart="107.62">
        <route edges="E2"/>
    </vehicle>
    <vehicle id="veh_32" type="passenger" depart="107.97">
        <route edges="E2 E6"/>
    </vehicle>
    <vehicle id="veh_10" type="truck" depart="113.77">
        <route edges="E2 E4"/>
    </vehicle>
    <vehicle id="veh_39" type="bus" depart="119.95">
        <route edges="-E6 -E2 E3"/>
    </vehicle>
    <vehicle id="veh_67" type="passenger" depart="121.01">
        <route edges="E2 E5"/>
    </vehicle>
    <vehicle id="veh_9" type="passenger" depart="132.13">
        <route edges="-E4 -E2 E3"/>
    </vehicle>
    <vehicle id="veh_31" type="passenger" depart="145.19">
        <route edges="-E3 E2 E4"/>
    </vehicle>
    <vehicle id="veh_14" type="passenger" depart="145.51">
        <route edges="E0 E3"/>
    </vehicle>
    <vehicle id="veh_21" type="bus" depart="146.52">
        <route edges="E2"/>
    </vehicle>
    <vehicle id="veh_3" type="passenger" depart="151.9">
        <route edges="-E2 E1"/>
    </vehicle>
    <vehicle id="veh_87" type="passenger" depart="157.8">
        <route edges="-E6 -E2 E3"/>
    </vehicle>
    <vehicle id="veh_74" type="passenger" depart="162.47">
        <route edges="-E2 E1"/>
    </vehicle>
    <vehicle id="veh_24" type="passenger" depart="165.88">
        <route edges="-E1 E2 E5"/>
    </vehicle>
    <vehicle id="veh_23" type="passenger" depart="167.09">
        <route edges="-E1 E2 E6"/>
    </vehicle>
    <vehicle id="veh_76" type="motorcycle" depart="168.49">
        <route edges="-E6 E4"/>
    </vehicle>
    <vehicle id="veh_49" type="passenger" depart="174.47">
        <route edges="-E6 E4"/>
    </vehicle>
    <vehicle id="veh_52" type="passenger" depart="178.15">
        <route edges="E2 E4"/>
    </vehicle>
    <vehicle id="veh_63" type="passenger" depart="179.75">
        <route edges="E0 E2 E5"/>
    </vehicle>
    <vehicle id="veh_56" type="passenger" depart="184.11">
        <route edges="-E4 -E2 E3"/>
    </vehicle>
    <vehicle id="veh_12" type="passenger" depart="185.06">
        <route edges="-E6 -E2 E3"/>
    </vehicle>
    <vehicle id="veh_65" type="motorcycle" depart="192.45">
        <route edges="E0 E2 E4"/>
    </vehicle>
    <vehicle id="veh_77" type="passenger" depart="196.91">
        <route edges="-E1 E2 E5"/>
    </vehicle>
    <vehicle id="veh_41" type="passenger" depart="203.06">
        <route edges="-E2 E1"/>
    </vehicle>
    <vehicle id="veh_71" type="truck" depart="203.94">
        <route edges="E2 E5"/>
    </vehicle>
    <vehicle id="veh_85" type="passenger" depart="210.43">
        <route edges="-E5 E4"/>
    </vehicle>
    <vehicle id="veh_57" type="passenger" depart="214.84">
        <route edges="-E2 E1"/>
    </vehicle>
    <vehicle id="veh_38" type="passenger" depart="218.28">
        <route edges="-E2 E3"/>
    </vehicle>
    <vehicle id="veh_19" type="passenger" depart="219.7">
        <route edges="E2 E6"/>
    </vehicle>
    <vehicle id="veh_60" type="bus" depart="226.96">
        <route edges="E2 E5"/>
    </vehicle>
    <vehicle id="veh_27" type="motorcycle" depart="229.21">
        <route edges="-E6 -E2 -E0"/>
    </vehicle>
    <vehicle id="veh_16" type="passenger" depart="229.44">
        <route edges="-E1 E2 E6"/>
    </vehicle>
    <vehicle id="veh_81" type="truck" depart="235.15">
        <route edges="-E5 E6"/>
    </vehicle>
    <vehicle id="veh_18" type="bus" depart="240.27">
        <route edges="-E1 -E0"/>
    </vehicle>
    <vehicle id="veh_47" type="passenger" depart="249.28">
        <route edges="-E1 E2 E5"/>
    </vehicle>
    <vehicle id="veh_4" type="motorcycle" depart="250.94">
        <route edges="-E3 E2 E6"/>
    </vehicle>
    <vehicle id="veh_80" type="passenger" depart="254.17">
        <route edges="-E2 E3"/>
    </vehicle>
    <vehicle id="veh_30" type="truck" depart="258.16">
        <route edges="-E1 -E0"/>
    </vehicle>
    <vehicle id="veh_53" type="passenger" depart="271.53">
        <route edges="-E1 E2 E6"/>
    </vehicle>
    <vehicle id="veh_69" type="passenger" depart="275.36">
        <route edges="-E5 E6"/>
    </vehicle>
    <vehicle id="veh_78" type="passenger" depart="276.72">
        <route edges="-E4 -E2 E3"/>
    </vehicle>
    <vehicle id="veh_1" type="passenger" depart="291.13">
        <route edges="-E2 E1"/>
    </vehicle>
    <vehicle id="veh_43" type="passenger" depart="298.29">
        <route edges="-E3 E2 E6"/>
    </vehicle>
    <vehicle id="veh_61" type="truck" depart="309.06">
        <route edges="-E2 E1"/>
    </vehicle>
    <vehicle id="veh_36" type="motorcycle" depart="310.93">
        <route edges="-E1 E2 E5"/>
    </vehicle>
    <vehicle id="veh_40" type="passenger" depart="312.11">
        <route edges="-E1 -E0"/>
    </vehicle>
    <vehicle id="veh_86" type="passenger" depart="320.2">
        <route edges="-E3 E2 E6"/>
    </vehicle>
    <vehicle id="veh_59" type="passenger" depart="321.34">
        <route edges="E2 E4"/>
    </vehicle>
    <vehicle id="veh_84" type="motorcycle" depart="328.42">
        <route edges="-E6 -E2 -E0"/>
    </vehicle>
    <vehicle id="veh_79" type="passenger" depart="331.86">
        <route edges="-E6 -E2 -E0"/>
    </vehicle>
    <vehicle id="veh_64" type="passenger" depart="334.58">
        <route edges="-E4 -E2 -E0"/>
    </vehicle>
    <vehicle id="veh_42" type="motorcycle" depart="335.66">
        <route edges="-E1 E2 E5"/>
    </vehicle>
    <vehicle id="veh_44" type="bus" depart="341.36">
        <route edges="-E3 E2 E4"/>
    </vehicle>
    <vehicle id="veh_33" type="passenger" depart="344.09">
        <route edges="E2 E6"/>
    </vehicle>
    <vehicle id="veh_35" type="motorcycle" depart="349.07">
        <route edges="E0 E2 E5"/>
    </vehicle>
    <vehicle id="veh_37" type="passenger" depart="351.25">
        <route edges="-E5 E6"/>
    </vehicle>
    <vehicle id="veh_46" type="passenger" depart="357.33">
        <route edges="-E6 -E2 E3"/>
    </vehicle>
    <vehicle id="veh_83" type="passenger" depart="360.66">
        <route edges="-E6 -E2 -E0"/>
    </vehicle>
    <vehicle id="veh_72" type="passenger" depart="364.54">
        <route edges="-E3 E2 E4"/>
    </vehicle>
    <vehicle id="veh_15" type="bus" depart="376.01">
        <route edges="-E2 E1"/>
    </vehicle>
    <vehicle id="veh_6" type="passenger" depart="392.62">
        <route edges="-E6 -E2 -E0"/>
    </vehicle>
    <vehicle id="veh_11" type="passenger" depart="392.64">
        <route edges="-E4 -E2 -E0"/>
    </vehicle>
    <vehicle id="veh_34" type="motorcycle" depart="395.17">
        <route edges="E2 E4"/>
    </vehicle>
    <vehicle id="veh_13" type="passenger" depart="396.45">
        <route edges="E2 E5"/>
    </vehicle>
    <vehicle id="veh_68" type="truck" depart="397.9">
        <route edges="-E2 E1"/>
    </vehicle>
</routes>
