<?xml version="1.0" encoding="UTF-8"?>
<routes>
    <vType id="passenger" accel="2.6" decel="4.5" sigma="0.5" length="5.0" minGap="2.5" maxSpeed="50.0" guiShape="passenger" color="1,0,0"/>
    <vType id="bus" accel="1.2" decel="4.0" sigma="0.5" length="12.0" minGap="3.0" maxSpeed="30.0" guiShape="bus" color="0,0,1"/>
    <vType id="truck" accel="1.5" decel="3.5" sigma="0.5" length="10.0" minGap="3.0" maxSpeed="40.0" guiShape="truck" color="0,1,0"/>
    <vType id="motorcycle" accel="3.0" decel="5.0" sigma="0.5" length="2.5" minGap="1.5" maxSpeed="55.0" guiShape="motorcycle" color="1,1,0"/>
    <vehicle id="veh_25" type="passenger" depart="3.56">
        <route edges="E0 E3"/>
    </vehicle>
    <vehicle id="veh_79" type="passenger" depart="5.57">
        <route edges="-E5 E4"/>
    </vehicle>
    <vehicle id="veh_98" type="bus" depart="7.65">
        <route edges="E0 E2 E4"/>
    </vehicle>
    <vehicle id="veh_22" type="passenger" depart="10.92">
        <route edges="-E3 E2 E4"/>
    </vehicle>
    <vehicle id="veh_5" type="passenger" depart="13.81">
        <route edges="-E2 E3"/>
    </vehicle>
    <vehicle id="veh_45" type="bus" depart="17.87">
        <route edges="-E6 E4"/>
    </vehicle>
    <vehicle id="veh_30" type="passenger" depart="31.55">
        <route edges="-E4 -E2 E3"/>
    </vehicle>
    <vehicle id="veh_24" type="passenger" depart="36.11">
        <route edges="-E5 -E2 E1"/>
    </vehicle>
    <vehicle id="veh_33" type="passenger" depart="45.05">
        <route edges="E0 E2 E5"/>
    </vehicle>
    <vehicle id="veh_75" type="passenger" depart="51.17">
        <route edges="-E5 E4"/>
    </vehicle>
    <vehicle id="veh_7" type="passenger" depart="53.51">
        <route edges="-E5 E4"/>
    </vehicle>
    <vehicle id="veh_34" type="passenger" depart="60.64">
        <route edges="E2 E5"/>
    </vehicle>
    <vehicle id="veh_76" type="passenger" depart="62.45">
        <route edges="-E6 E4"/>
    </vehicle>
    <vehicle id="veh_9" type="passenger" depart="62.56">
        <route edges="-E6 -E2 E3"/>
    </vehicle>
    <vehicle id="veh_2" type="passenger" depart="65.25">
        <route edges="-E1 E2 E6"/>
    </vehicle>
    <vehicle id="veh_50" type="passenger" depart="70.58">
        <route edges="-E6 E4"/>
    </vehicle>
    <vehicle id="veh_70" type="passenger" depart="71.19">
        <route edges="-E6 -E2 -E0"/>
    </vehicle>
    <vehicle id="veh_35" type="passenger" depart="79.81">
        <route edges="-E2 E3"/>
    </vehicle>
    <vehicle id="veh_27" type="motorcycle" depart="84.84">
        <route edges="-E6 -E2 -E0"/>
    </vehicle>
    <vehicle id="veh_88" type="passenger" depart="85.45">
        <route edges="E0 E2 E4"/>
    </vehicle>
    <vehicle id="veh_97" type="motorcycle" depart="98.22">
        <route edges="E0 E3"/>
    </vehicle>
    <vehicle id="veh_26" type="passenger" depart="100.93">
        <route edges="E0 E2 E5"/>
    </vehicle>
    <vehicle id="veh_4" type="bus" depart="105.56">
        <route edges="-E5 E6"/>
    </vehicle>
    <vehicle id="veh_90" type="passenger" depart="105.97">
        <route edges="-E6 -E2 -E0"/>
    </vehicle>
    <vehicle id="veh_31" type="passenger" depart="109.14">
        <route edges="E0 E2 E4"/>
    </vehicle>
    <vehicle id="veh_92" type="passenger" depart="111.87">
        <route edges="E0 E3"/>
    </vehicle>
    <vehicle id="veh_99" type="bus" depart="129.48">
        <route edges="E0 E2 E5"/>
    </vehicle>
    <vehicle id="veh_81" type="truck" depart="129.81">
        <route edges="E0 E2 E4"/>
    </vehicle>
    <vehicle id="veh_37" type="passenger" depart="129.95">
        <route edges="-E3 E2 E4"/>
    </vehicle>
    <vehicle id="veh_41" type="passenger" depart="134.86">
        <route edges="-E4 -E2 -E0"/>
    </vehicle>
    <vehicle id="veh_8" type="passenger" depart="135.54">
        <route edges="E0 E2 E4"/>
    </vehicle>
    <vehicle id="veh_17" type="bus" depart="140.46">
        <route edges="-E4 -E2 -E0"/>
    </vehicle>
    <vehicle id="veh_64" type="passenger" depart="143.93">
        <route edges="E2 E4"/>
    </vehicle>
    <vehicle id="veh_10" type="truck" depart="144.81">
        <route edges="E2 E6"/>
    </vehicle>
    <vehicle id="veh_87" type="passenger" depart="153.48">
        <route edges="-E3 E2 E6"/>
    </vehicle>
    <vehicle id="veh_62" type="passenger" depart="155.13">
        <route edges="E0 E3"/>
    </vehicle>
    <vehicle id="veh_53" type="passenger" depart="156.4">
        <route edges="-E4 -E2 E3"/>
    </vehicle>
    <vehicle id="veh_74" type="passenger" depart="163.84">
        <route edges="-E5 E4"/>
    </vehicle>
    <vehicle id="veh_20" type="passenger" depart="164.36">
        <route edges="-E3 E2 E6"/>
    </vehicle>
    <vehicle id="veh_52" type="passenger" depart="170.49">
        <route edges="-E6 E4"/>
    </vehicle>
    <vehicle id="veh_36" type="bus" depart="174.5">
        <route edges="E2 E4"/>
    </vehicle>
    <vehicle id="veh_14" type="bus" depart="175.42">
        <route edges="-E2 E3"/>
    </vehicle>
    <vehicle id="veh_43" type="motorcycle" depart="175.84">
        <route edges="-E4 -E2 -E0"/>
    </vehicle>
    <vehicle id="veh_6" type="passenger" depart="176.72">
        <route edges="E2 E6"/>
    </vehicle>
    <vehicle id="veh_95" type="passenger" depart="178.69">
        <route edges="E2 E6"/>
    </vehicle>
    <vehicle id="veh_67" type="passenger" depart="179.64">
        <route edges="E2 E5"/>
    </vehicle>
    <vehicle id="veh_1" type="passenger" depart="181.97">
        <route edges="-E1 -E0"/>
    </vehicle>
    <vehicle id="veh_29" type="passenger" depart="186.1">
        <route edges="-E1 -E0"/>
    </vehicle>
    <vehicle id="veh_51" type="passenger" depart="195.18">
        <route edges="-E5 E6"/>
    </vehicle>
    <vehicle id="veh_28" type="passenger" depart="195.61">
        <route edges="E2 E6"/>
    </vehicle>
    <vehicle id="veh_85" type="bus" depart="195.64">
        <route edges="-E1 E2 E6"/>
    </vehicle>
    <vehicle id="veh_15" type="passenger" depart="199.53">
        <route edges="-E3 E2 E4"/>
    </vehicle>
    <vehicle id="veh_84" type="passenger" depart="201.82">
        <route edges="-E4 -E2 E3"/>
    </vehicle>
    <vehicle id="veh_77" type="passenger" depart="205.36">
        <route edges="E2"/>
    </vehicle>
    <vehicle id="veh_40" type="passenger" depart="213.66">
        <route edges="E2 E4"/>
    </vehicle>
    <vehicle id="veh_56" type="passenger" depart="222.24">
        <route edges="-E4 -E2 E3"/>
    </vehicle>
    <vehicle id="veh_80" type="passenger" depart="224.47">
        <route edges="-E1 E2 E5"/>
    </vehicle>
    <vehicle id="veh_32" type="motorcycle" depart="225.83">
        <route edges="-E4 -E2 -E0"/>
    </vehicle>
    <vehicle id="veh_63" type="motorcycle" depart="226.13">
        <route edges="-E6 E4"/>
    </vehicle>
    <vehicle id="veh_47" type="passenger" depart="229.15">
        <route edges="-E6 -E2 E3"/>
    </vehicle>
    <vehicle id="veh_68" type="passenger" depart="230.36">
        <route edges="E2 E5"/>
    </vehicle>
    <vehicle id="veh_42" type="bus" depart="238.69">
        <route edges="-E6 E4"/>
    </vehicle>
    <vehicle id="veh_73" type="truck" depart="249.35">
        <route edges="-E1 E2 E5"/>
    </vehicle>
    <vehicle id="veh_66" type="passenger" depart="253.13">
        <route edges="-E2 E3"/>
    </vehicle>
    <vehicle id="veh_23" type="motorcycle" depart="255.74">
        <route edges="E2 E5"/>
    </vehicle>
    <vehicle id="veh_86" type="passenger" depart="257.38">
        <route edges="E2 E4"/>
    </vehicle>
    <vehicle id="veh_71" type="bus" depart="258.31">
        <route edges="-E1 -E0"/>
    </vehicle>
    <vehicle id="veh_91" type="passenger" depart="260.41">
        <route edges="-E3 E2 E4"/>
    </vehicle>
    <vehicle id="veh_89" type="passenger" depart="262.12">
        <route edges="-E1 E2 E6"/>
    </vehicle>
    <vehicle id="veh_94" type="passenger" depart="262.2">
        <route edges="-E6 -E2 -E0"/>
    </vehicle>
    <vehicle id="veh_11" type="truck" depart="270.29">
        <route edges="-E5 E6"/>
    </vehicle>
    <vehicle id="veh_54" type="passenger" depart="271.34">
        <route edges="-E6 -E2 -E0"/>
    </vehicle>
    <vehicle id="veh_21" type="passenger" depart="273.43">
        <route edges="E0 E3"/>
    </vehicle>
    <vehicle id="veh_16" type="passenger" depart="278.41">
        <route edges="-E4 -E2 -E0"/>
    </vehicle>
    <vehicle id="veh_18" type="passenger" depart="293.45">
        <route edges="-E4 -E2 E3"/>
    </vehicle>
    <vehicle id="veh_3" type="passenger" depart="297.12">
        <route edges="E2 E5"/>
    </vehicle>
    <vehicle id="veh_61" type="passenger" depart="297.49">
        <route edges="-E2 E1"/>
    </vehicle>
    <vehicle id="veh_72" type="motorcycle" depart="302.7">
        <route edges="-E4 -E2 E3"/>
    </vehicle>
    <vehicle id="veh_0" type="passenger" depart="304.95">
        <route edges="E2"/>
    </vehicle>
    <vehicle id="veh_57" type="passenger" depart="311.45">
        <route edges="E0 E3"/>
    </vehicle>
    <vehicle id="veh_58" type="passenger" depart="312.88">
        <route edges="-E5 -E2 E1"/>
    </vehicle>
    <vehicle id="veh_48" type="truck" depart="316.71">
        <route edges="E0 E3"/>
    </vehicle>
    <vehicle id="veh_12" type="motorcycle" depart="319.97">
        <route edges="-E5 E6"/>
    </vehicle>
    <vehicle id="veh_96" type="passenger" depart="328.81">
        <route edges="-E2 E1"/>
    </vehicle>
    <vehicle id="veh_46" type="bus" depart="329.89">
        <route edges="-E2 E1"/>
    </vehicle>
    <vehicle id="veh_59" type="passenger" depart="335.59">
        <route edges="-E1 E2 E5"/>
    </vehicle>
    <vehicle id="veh_82" type="bus" depart="336.27">
        <route edges="E2"/>
    </vehicle>
    <vehicle id="veh_49" type="truck" depart="351.87">
        <route edges="E0 E2 E5"/>
    </vehicle>
    <vehicle id="veh_44" type="passenger" depart="356.04">
        <route edges="-E2 E3"/>
    </vehicle>
    <vehicle id="veh_55" type="truck" depart="356.34">
        <route edges="E0 E2 E4"/>
    </vehicle>
    <vehicle id="veh_65" type="bus" depart="358.6">
        <route edges="E0 E3"/>
    </vehicle>
    <vehicle id="veh_93" type="motorcycle" depart="362.05">
        <route edges="-E6 -E2 -E0"/>
    </vehicle>
    <vehicle id="veh_19" type="passenger" depart="365.25">
        <route edges="E0 E3"/>
    </vehicle>
    <vehicle id="veh_83" type="passenger" depart="371.63">
        <route edges="-E6 -E2 E3"/>
    </vehicle>
    <vehicle id="veh_60" type="passenger" depart="374.39">
        <route edges="E2 E6"/>
    </vehicle>
    <vehicle id="veh_39" type="passenger" depart="375.45">
        <route edges="E0 E2 E4"/>
    </vehicle>
    <vehicle id="veh_13" type="passenger" depart="379.19">
        <route edges="E2 E5"/>
    </vehicle>
    <vehicle id="veh_78" type="passenger" depart="386.05">
        <route edges="-E5 E4"/>
    </vehicle>
    <vehicle id="veh_69" type="passenger" depart="395.85">
        <route edges="-E1 -E0"/>
    </vehicle>
    <vehicle id="veh_38" type="passenger" depart="396.94">
        <route edges="-E1 E2 E5"/>
    </vehicle>
</routes>
