<?xml version="1.0" encoding="UTF-8"?>
<routes>
    <vType id="passenger" accel="2.6" decel="4.5" sigma="0.5" length="5.0" minGap="2.5" maxSpeed="50.0" color="1,0,0"/>
    <vType id="bus" accel="1.2" decel="4.0" sigma="0.5" length="12.0" minGap="3.0" maxSpeed="30.0" color="0,0,1"/>
    <vType id="truck" accel="1.5" decel="3.5" sigma="0.5" length="10.0" minGap="3.0" maxSpeed="40.0" color="0,1,0"/>
    <vType id="motorcycle" accel="3.0" decel="5.0" sigma="0.5" length="2.5" minGap="1.5" maxSpeed="55.0" color="1,1,0"/>
    <vehicle id="veh_0" type="bus" depart="4.2">
        <route edges="E2 E4"/>
    </vehicle>
    <vehicle id="veh_77" type="truck" depart="8.66">
        <route edges="-E6 -E2 -E0"/>
    </vehicle>
    <vehicle id="veh_42" type="passenger" depart="21.25">
        <route edges="-E2 E3"/>
    </vehicle>
    <vehicle id="veh_35" type="passenger" depart="26.14">
        <route edges="-E5 E4"/>
    </vehicle>
    <vehicle id="veh_86" type="passenger" depart="26.5">
        <route edges="-E6 -E2 E3"/>
    </vehicle>
    <vehicle id="veh_17" type="passenger" depart="27.08">
        <route edges="-E1 -E0"/>
    </vehicle>
    <vehicle id="veh_63" type="passenger" depart="35.9">
        <route edges="E2 E5"/>
    </vehicle>
    <vehicle id="veh_73" type="passenger" depart="40.36">
        <route edges="-E1 -E0"/>
    </vehicle>
    <vehicle id="veh_19" type="passenger" depart="42.88">
        <route edges="-E6 E4"/>
    </vehicle>
    <vehicle id="veh_26" type="passenger" depart="46.01">
        <route edges="E0 E3"/>
    </vehicle>
    <vehicle id="veh_1" type="bus" depart="46.65">
        <route edges="E0 E2 E4"/>
    </vehicle>
    <vehicle id="veh_14" type="passenger" depart="48.51">
        <route edges="E0 E2 E4"/>
    </vehicle>
    <vehicle id="veh_34" type="bus" depart="50.36">
        <route edges="E2 E6"/>
    </vehicle>
    <vehicle id="veh_48" type="bus" depart="54.38">
        <route edges="E0 E2 E4"/>
    </vehicle>
    <vehicle id="veh_4" type="passenger" depart="55.67">
        <route edges="-E4 -E2 -E0"/>
    </vehicle>
    <vehicle id="veh_57" type="truck" depart="59.47">
        <route edges="-E2 E3"/>
    </vehicle>
    <vehicle id="veh_81" type="bus" depart="63.95">
        <route edges="-E5 E4"/>
    </vehicle>
    <vehicle id="veh_37" type="passenger" depart="64.27">
        <route edges="-E6 -E2 E3"/>
    </vehicle>
    <vehicle id="veh_24" type="truck" depart="64.54">
        <route edges="-E1 E2 E6"/>
    </vehicle>
    <vehicle id="veh_23" type="motorcycle" depart="74.01">
        <route edges="-E4 -E2 E3"/>
    </vehicle>
    <vehicle id="veh_9" type="passenger" depart="80.05">
        <route edges="-E3 E2 E4"/>
    </vehicle>
    <vehicle id="veh_47" type="truck" depart="80.19">
        <route edges="-E5 E4"/>
    </vehicle>
    <vehicle id="veh_11" type="bus" depart="94.01">
        <route edges="E2 E5"/>
    </vehicle>
    <vehicle id="veh_29" type="truck" depart="95.43">
        <route edges="-E4 -E2 E3"/>
    </vehicle>
    <vehicle id="veh_62" type="passenger" depart="102.61">
        <route edges="E2 E6"/>
    </vehicle>
    <vehicle id="veh_45" type="truck" depart="107.43">
        <route edges="-E3 E2 E6"/>
    </vehicle>
    <vehicle id="veh_6" type="passenger" depart="108.39">
        <route edges="-E5 E4"/>
    </vehicle>
    <vehicle id="veh_39" type="bus" depart="111.36">
        <route edges="-E2 E3"/>
    </vehicle>
    <vehicle id="veh_83" type="passenger" depart="116.9">
        <route edges="-E5 E6"/>
    </vehicle>
    <vehicle id="veh_55" type="passenger" depart="122.03">
        <route edges="-E6 -E2 E3"/>
    </vehicle>
    <vehicle id="veh_58" type="truck" depart="131.66">
        <route edges="E2 E5"/>
    </vehicle>
    <vehicle id="veh_33" type="passenger" depart="139.49">
        <route edges="-E2 E3"/>
    </vehicle>
    <vehicle id="veh_82" type="passenger" depart="144.1">
        <route edges="E2"/>
    </vehicle>
    <vehicle id="veh_84" type="passenger" depart="146.72">
        <route edges="-E3 E2 E6"/>
    </vehicle>
    <vehicle id="veh_68" type="passenger" depart="153.89">
        <route edges="E2 E6"/>
    </vehicle>
    <vehicle id="veh_22" type="passenger" depart="166.04">
        <route edges="E0 E3"/>
    </vehicle>
    <vehicle id="veh_21" type="passenger" depart="166.52">
        <route edges="E2 E6"/>
    </vehicle>
    <vehicle id="veh_38" type="passenger" depart="169.06">
        <route edges="-E6 E4"/>
    </vehicle>
    <vehicle id="veh_61" type="motorcycle" depart="169.58">
        <route edges="-E4 -E2 -E0"/>
    </vehicle>
    <vehicle id="veh_28" type="passenger" depart="169.86">
        <route edges="E2 E4"/>
    </vehicle>
    <vehicle id="veh_69" type="passenger" depart="173.98">
        <route edges="-E1 E2 E6"/>
    </vehicle>
    <vehicle id="veh_76" type="passenger" depart="176.37">
        <route edges="-E6 E4"/>
    </vehicle>
    <vehicle id="veh_53" type="passenger" depart="187.29">
        <route edges="-E1 E2 E5"/>
    </vehicle>
    <vehicle id="veh_8" type="motorcycle" depart="193.72">
        <route edges="-E3 E2 E6"/>
    </vehicle>
    <vehicle id="veh_75" type="passenger" depart="194.55">
        <route edges="E2 E6"/>
    </vehicle>
    <vehicle id="veh_13" type="passenger" depart="194.84">
        <route edges="-E5 E6"/>
    </vehicle>
    <vehicle id="veh_74" type="motorcycle" depart="202.53">
        <route edges="-E3 E2 E6"/>
    </vehicle>
    <vehicle id="veh_79" type="passenger" depart="204.86">
        <route edges="E0 E2 E4"/>
    </vehicle>
    <vehicle id="veh_46" type="passenger" depart="214.47">
        <route edges="-E5 E6"/>
    </vehicle>
    <vehicle id="veh_18" type="motorcycle" depart="216.21">
        <route edges="-E6 -E2 -E0"/>
    </vehicle>
    <vehicle id="veh_3" type="bus" depart="216.43">
        <route edges="-E5 E4"/>
    </vehicle>
    <vehicle id="veh_72" type="passenger" depart="231.7">
        <route edges="-E5 E4"/>
    </vehicle>
    <vehicle id="veh_54" type="passenger" depart="234.61">
        <route edges="-E3 E2 E4"/>
    </vehicle>
    <vehicle id="veh_85" type="passenger" depart="236.75">
        <route edges="E0 E2 E5"/>
    </vehicle>
    <vehicle id="veh_31" type="passenger" depart="241.65">
        <route edges="E0 E2 E4"/>
    </vehicle>
    <vehicle id="veh_87" type="passenger" depart="249.28">
        <route edges="-E5 E4"/>
    </vehicle>
    <vehicle id="veh_10" type="passenger" depart="260.39">
        <route edges="-E1 E2 E5"/>
    </vehicle>
    <vehicle id="veh_7" type="passenger" depart="261.97">
        <route edges="-E6 E4"/>
    </vehicle>
    <vehicle id="veh_30" type="bus" depart="266.34">
        <route edges="-E1 -E0"/>
    </vehicle>
    <vehicle id="veh_50" type="passenger" depart="266.73">
        <route edges="E0 E2 E5"/>
    </vehicle>
    <vehicle id="veh_59" type="motorcycle" depart="268.69">
        <route edges="-E1 E2 E5"/>
    </vehicle>
    <vehicle id="veh_2" type="bus" depart="281.99">
        <route edges="-E4 -E2 E3"/>
    </vehicle>
    <vehicle id="veh_51" type="passenger" depart="283.37">
        <route edges="-E6 -E2 E3"/>
    </vehicle>
    <vehicle id="veh_5" type="motorcycle" depart="291.66">
        <route edges="-E4 -E2 E3"/>
    </vehicle>
    <vehicle id="veh_71" type="truck" depart="296.24">
        <route edges="E2"/>
    </vehicle>
    <vehicle id="veh_64" type="passenger" depart="299.63">
        <route edges="-E5 E6"/>
    </vehicle>
    <vehicle id="veh_16" type="passenger" depart="310.3">
        <route edges="-E2 E1"/>
    </vehicle>
    <vehicle id="veh_36" type="passenger" depart="312.61">
        <route edges="E0 E3"/>
    </vehicle>
    <vehicle id="veh_49" type="passenger" depart="314.02">
        <route edges="-E6 E4"/>
    </vehicle>
    <vehicle id="veh_15" type="passenger" depart="315.94">
        <route edges="E2 E4"/>
    </vehicle>
    <vehicle id="veh_20" type="passenger" depart="317.94">
        <route edges="E0 E2 E4"/>
    </vehicle>
    <vehicle id="veh_56" type="passenger" depart="321.0">
        <route edges="E2 E4"/>
    </vehicle>
    <vehicle id="veh_66" type="truck" depart="326.28">
        <route edges="-E5 E6"/>
    </vehicle>
    <vehicle id="veh_52" type="passenger" depart="332.23">
        <route edges="E2 E6"/>
    </vehicle>
    <vehicle id="veh_70" type="bus" depart="336.79">
        <route edges="-E2 E3"/>
    </vehicle>
    <vehicle id="veh_25" type="passenger" depart="338.68">
        <route edges="-E4 -E2 -E0"/>
    </vehicle>
    <vehicle id="veh_32" type="motorcycle" depart="345.54">
        <route edges="-E6 -E2 E3"/>
    </vehicle>
    <vehicle id="veh_41" type="passenger" depart="345.74">
        <route edges="-E1 E2 E5"/>
    </vehicle>
    <vehicle id="veh_44" type="passenger" depart="348.19">
        <route edges="-E1 E2 E5"/>
    </vehicle>
    <vehicle id="veh_43" type="passenger" depart="348.42">
        <route edges="-E2 E3"/>
    </vehicle>
    <vehicle id="veh_65" type="passenger" depart="354.02">
        <route edges="E2"/>
    </vehicle>
    <vehicle id="veh_12" type="passenger" depart="359.44">
        <route edges="-E1 -E0"/>
    </vehicle>
    <vehicle id="veh_40" type="passenger" depart="360.64">
        <route edges="-E6 E4"/>
    </vehicle>
    <vehicle id="veh_78" type="passenger" depart="361.98">
        <route edges="-E5 E6"/>
    </vehicle>
    <vehicle id="veh_60" type="passenger" depart="363.19">
        <route edges="E2 E6"/>
    </vehicle>
    <vehicle id="veh_27" type="passenger" depart="370.91">
        <route edges="-E6 -E2 E3"/>
    </vehicle>
    <vehicle id="veh_80" type="truck" depart="389.95">
        <route edges="-E4 -E2 -E0"/>
    </vehicle>
    <vehicle id="veh_67" type="passenger" depart="391.7">
        <route edges="-E1 E2 E6"/>
    </vehicle>
</routes>
