<?xml version="1.0" encoding="UTF-8"?>
<routes>
    <vType id="passenger" accel="2.6" decel="4.5" sigma="0.5" length="5.0" minGap="2.5" maxSpeed="50.0" color="1,0,0"/>
    <vType id="bus" accel="1.2" decel="4.0" sigma="0.5" length="12.0" minGap="3.0" maxSpeed="30.0" color="0,0,1"/>
    <vType id="truck" accel="1.5" decel="3.5" sigma="0.5" length="10.0" minGap="3.0" maxSpeed="40.0" color="0,1,0"/>
    <vType id="motorcycle" accel="3.0" decel="5.0" sigma="0.5" length="2.5" minGap="1.5" maxSpeed="55.0" color="1,1,0"/>
    <vehicle id="veh_84" type="passenger" depart="6.3">
        <route edges="E2"/>
    </vehicle>
    <vehicle id="veh_49" type="motorcycle" depart="9.06">
        <route edges="E2 E4"/>
    </vehicle>
    <vehicle id="veh_58" type="passenger" depart="11.73">
        <route edges="-E3 E2 E4"/>
    </vehicle>
    <vehicle id="veh_2" type="passenger" depart="20.69">
        <route edges="-E5 E6"/>
    </vehicle>
    <vehicle id="veh_22" type="passenger" depart="25.53">
        <route edges="-E2 E1"/>
    </vehicle>
    <vehicle id="veh_83" type="bus" depart="28.96">
        <route edges="E0 E3"/>
    </vehicle>
    <vehicle id="veh_19" type="passenger" depart="40.26">
        <route edges="-E1 E2 E5"/>
    </vehicle>
    <vehicle id="veh_77" type="bus" depart="49.48">
        <route edges="-E6 E4"/>
    </vehicle>
    <vehicle id="veh_18" type="passenger" depart="54.15">
        <route edges="E2 E4"/>
    </vehicle>
    <vehicle id="veh_46" type="motorcycle" depart="55.14">
        <route edges="-E6 -E2 -E0"/>
    </vehicle>
    <vehicle id="veh_85" type="passenger" depart="55.65">
        <route edges="-E4 -E2 -E0"/>
    </vehicle>
    <vehicle id="veh_29" type="truck" depart="56.4">
        <route edges="-E5 E4"/>
    </vehicle>
    <vehicle id="veh_59" type="passenger" depart="59.18">
        <route edges="-E4 -E2 E3"/>
    </vehicle>
    <vehicle id="veh_6" type="passenger" depart="68.12">
        <route edges="-E1 -E0"/>
    </vehicle>
    <vehicle id="veh_23" type="passenger" depart="70.29">
        <route edges="-E2 E1"/>
    </vehicle>
    <vehicle id="veh_63" type="passenger" depart="70.38">
        <route edges="E2"/>
    </vehicle>
    <vehicle id="veh_4" type="passenger" depart="71.54">
        <route edges="-E4 -E2 E3"/>
    </vehicle>
    <vehicle id="veh_69" type="passenger" depart="81.99">
        <route edges="-E1 E2 E6"/>
    </vehicle>
    <vehicle id="veh_11" type="motorcycle" depart="87.07">
        <route edges="-E2 E1"/>
    </vehicle>
    <vehicle id="veh_35" type="passenger" depart="109.58">
        <route edges="E2"/>
    </vehicle>
    <vehicle id="veh_39" type="passenger" depart="124.55">
        <route edges="-E4 -E2 E3"/>
    </vehicle>
    <vehicle id="veh_3" type="passenger" depart="126.94">
        <route edges="-E2 E3"/>
    </vehicle>
    <vehicle id="veh_44" type="passenger" depart="127.1">
        <route edges="-E2 E3"/>
    </vehicle>
    <vehicle id="veh_57" type="passenger" depart="127.16">
        <route edges="E0 E3"/>
    </vehicle>
    <vehicle id="veh_36" type="passenger" depart="127.67">
        <route edges="-E3 E2 E6"/>
    </vehicle>
    <vehicle id="veh_7" type="passenger" depart="133.62">
        <route edges="-E6 -E2 E3"/>
    </vehicle>
    <vehicle id="veh_9" type="passenger" depart="135.1">
        <route edges="-E2 E1"/>
    </vehicle>
    <vehicle id="veh_61" type="passenger" depart="135.34">
        <route edges="-E4 -E2 -E0"/>
    </vehicle>
    <vehicle id="veh_14" type="passenger" depart="135.81">
        <route edges="-E3 E2 E6"/>
    </vehicle>
    <vehicle id="veh_40" type="passenger" depart="136.79">
        <route edges="-E1 E2 E5"/>
    </vehicle>
    <vehicle id="veh_13" type="passenger" depart="137.73">
        <route edges="E0 E2 E5"/>
    </vehicle>
    <vehicle id="veh_81" type="passenger" depart="139.13">
        <route edges="E2 E4"/>
    </vehicle>
    <vehicle id="veh_37" type="truck" depart="143.19">
        <route edges="-E3 E2 E6"/>
    </vehicle>
    <vehicle id="veh_47" type="passenger" depart="151.15">
        <route edges="-E6 E4"/>
    </vehicle>
    <vehicle id="veh_1" type="passenger" depart="152.6">
        <route edges="E0 E2 E4"/>
    </vehicle>
    <vehicle id="veh_64" type="passenger" depart="158.77">
        <route edges="-E4 -E2 -E0"/>
    </vehicle>
    <vehicle id="veh_32" type="passenger" depart="159.69">
        <route edges="-E2 E3"/>
    </vehicle>
    <vehicle id="veh_73" type="passenger" depart="166.12">
        <route edges="-E1 E2 E6"/>
    </vehicle>
    <vehicle id="veh_72" type="passenger" depart="172.65">
        <route edges="-E2 E3"/>
    </vehicle>
    <vehicle id="veh_34" type="passenger" depart="172.75">
        <route edges="-E4 -E2 -E0"/>
    </vehicle>
    <vehicle id="veh_66" type="passenger" depart="173.47">
        <route edges="E2 E4"/>
    </vehicle>
    <vehicle id="veh_60" type="passenger" depart="177.43">
        <route edges="-E5 E6"/>
    </vehicle>
    <vehicle id="veh_71" type="bus" depart="179.57">
        <route edges="-E2 E3"/>
    </vehicle>
    <vehicle id="veh_38" type="passenger" depart="195.06">
        <route edges="E2 E6"/>
    </vehicle>
    <vehicle id="veh_52" type="passenger" depart="195.73">
        <route edges="-E1 -E0"/>
    </vehicle>
    <vehicle id="veh_87" type="passenger" depart="201.41">
        <route edges="-E6 -E2 -E0"/>
    </vehicle>
    <vehicle id="veh_10" type="passenger" depart="202.96">
        <route edges="-E4 -E2 -E0"/>
    </vehicle>
    <vehicle id="veh_5" type="truck" depart="203.73">
        <route edges="E2 E5"/>
    </vehicle>
    <vehicle id="veh_79" type="passenger" depart="203.8">
        <route edges="-E1 E2 E5"/>
    </vehicle>
    <vehicle id="veh_45" type="passenger" depart="212.8">
        <route edges="-E2 E3"/>
    </vehicle>
    <vehicle id="veh_25" type="motorcycle" depart="213.66">
        <route edges="-E4 -E2 E3"/>
    </vehicle>
    <vehicle id="veh_75" type="passenger" depart="215.3">
        <route edges="E2 E6"/>
    </vehicle>
    <vehicle id="veh_0" type="passenger" depart="216.06">
        <route edges="-E4 -E2 -E0"/>
    </vehicle>
    <vehicle id="veh_8" type="truck" depart="226.43">
        <route edges="-E5 E6"/>
    </vehicle>
    <vehicle id="veh_76" type="passenger" depart="231.24">
        <route edges="-E1 E2 E6"/>
    </vehicle>
    <vehicle id="veh_27" type="motorcycle" depart="240.15">
        <route edges="-E1 E2 E5"/>
    </vehicle>
    <vehicle id="veh_54" type="passenger" depart="240.26">
        <route edges="-E6 -E2 -E0"/>
    </vehicle>
    <vehicle id="veh_86" type="truck" depart="242.96">
        <route edges="E2 E5"/>
    </vehicle>
    <vehicle id="veh_56" type="passenger" depart="247.2">
        <route edges="-E5 -E2 E1"/>
    </vehicle>
    <vehicle id="veh_53" type="bus" depart="250.25">
        <route edges="-E5 E6"/>
    </vehicle>
    <vehicle id="veh_41" type="passenger" depart="257.54">
        <route edges="-E2 E3"/>
    </vehicle>
    <vehicle id="veh_48" type="passenger" depart="266.82">
        <route edges="-E2 E3"/>
    </vehicle>
    <vehicle id="veh_21" type="passenger" depart="270.3">
        <route edges="-E4 -E2 E3"/>
    </vehicle>
    <vehicle id="veh_80" type="motorcycle" depart="290.83">
        <route edges="-E1 -E0"/>
    </vehicle>
    <vehicle id="veh_30" type="passenger" depart="293.88">
        <route edges="E0 E3"/>
    </vehicle>
    <vehicle id="veh_78" type="passenger" depart="305.74">
        <route edges="-E1 E2 E6"/>
    </vehicle>
    <vehicle id="veh_70" type="passenger" depart="307.5">
        <route edges="-E5 E4"/>
    </vehicle>
    <vehicle id="veh_31" type="passenger" depart="315.0">
        <route edges="E2"/>
    </vehicle>
    <vehicle id="veh_28" type="passenger" depart="317.08">
        <route edges="-E6 E4"/>
    </vehicle>
    <vehicle id="veh_15" type="passenger" depart="320.56">
        <route edges="-E3 E2 E6"/>
    </vehicle>
    <vehicle id="veh_26" type="passenger" depart="328.95">
        <route edges="-E6 E4"/>
    </vehicle>
    <vehicle id="veh_65" type="passenger" depart="332.3">
        <route edges="-E5 E4"/>
    </vehicle>
    <vehicle id="veh_16" type="passenger" depart="333.61">
        <route edges="E0 E2 E5"/>
    </vehicle>
    <vehicle id="veh_43" type="passenger" depart="346.2">
        <route edges="-E2 E1"/>
    </vehicle>
    <vehicle id="veh_12" type="passenger" depart="348.44">
        <route edges="-E6 -E2 E3"/>
    </vehicle>
    <vehicle id="veh_33" type="motorcycle" depart="348.68">
        <route edges="-E4 -E2 E3"/>
    </vehicle>
    <vehicle id="veh_62" type="passenger" depart="352.22">
        <route edges="-E1 -E0"/>
    </vehicle>
    <vehicle id="veh_67" type="truck" depart="353.18">
        <route edges="E0 E2 E4"/>
    </vehicle>
    <vehicle id="veh_74" type="bus" depart="353.21">
        <route edges="E2 E4"/>
    </vehicle>
    <vehicle id="veh_20" type="passenger" depart="364.67">
        <route edges="-E1 E2 E6"/>
    </vehicle>
    <vehicle id="veh_17" type="truck" depart="365.24">
        <route edges="-E5 -E2 E1"/>
    </vehicle>
    <vehicle id="veh_51" type="truck" depart="375.3">
        <route edges="-E5 E4"/>
    </vehicle>
    <vehicle id="veh_24" type="motorcycle" depart="377.56">
        <route edges="-E3 E2 E6"/>
    </vehicle>
    <vehicle id="veh_82" type="bus" depart="383.59">
        <route edges="-E2 E1"/>
    </vehicle>
    <vehicle id="veh_68" type="passenger" depart="385.83">
        <route edges="-E5 E6"/>
    </vehicle>
    <vehicle id="veh_42" type="passenger" depart="388.33">
        <route edges="E2 E6"/>
    </vehicle>
    <vehicle id="veh_50" type="motorcycle" depart="396.66">
        <route edges="-E6 E4"/>
    </vehicle>
    <vehicle id="veh_55" type="motorcycle" depart="399.43">
        <route edges="-E1 -E0"/>
    </vehicle>
</routes>
