<?xml version="1.0" encoding="UTF-8"?>
<routes>
    <vType id="passenger" accel="2.6" decel="4.5" sigma="0.5" length="5.0" minGap="2.5" maxSpeed="50.0" color="1,0,0"/>
    <vType id="bus" accel="1.2" decel="4.0" sigma="0.5" length="12.0" minGap="3.0" maxSpeed="30.0" color="0,0,1"/>
    <vType id="truck" accel="1.5" decel="3.5" sigma="0.5" length="10.0" minGap="3.0" maxSpeed="40.0" color="0,1,0"/>
    <vType id="motorcycle" accel="3.0" decel="5.0" sigma="0.5" length="2.5" minGap="1.5" maxSpeed="55.0" color="1,1,0"/>
    <vehicle id="veh_19" type="truck" depart="3.01">
        <route edges="-E1 E2 E6"/>
    </vehicle>
    <vehicle id="veh_67" type="motorcycle" depart="4.54">
        <route edges="-E1 E2 E6"/>
    </vehicle>
    <vehicle id="veh_39" type="passenger" depart="11.82">
        <route edges="-E2 E1"/>
    </vehicle>
    <vehicle id="veh_23" type="passenger" depart="26.51">
        <route edges="E2 E4"/>
    </vehicle>
    <vehicle id="veh_68" type="passenger" depart="32.31">
        <route edges="-E1 E2 E5"/>
    </vehicle>
    <vehicle id="veh_51" type="passenger" depart="40.0">
        <route edges="E0 E3"/>
    </vehicle>
    <vehicle id="veh_24" type="passenger" depart="45.07">
        <route edges="E0 E2 E5"/>
    </vehicle>
    <vehicle id="veh_14" type="passenger" depart="45.65">
        <route edges="-E2 E3"/>
    </vehicle>
    <vehicle id="veh_79" type="bus" depart="47.35">
        <route edges="-E6 -E2 -E0"/>
    </vehicle>
    <vehicle id="veh_15" type="passenger" depart="53.85">
        <route edges="-E5 -E2 E1"/>
    </vehicle>
    <vehicle id="veh_33" type="passenger" depart="54.69">
        <route edges="-E6 -E2 -E0"/>
    </vehicle>
    <vehicle id="veh_3" type="passenger" depart="60.54">
        <route edges="-E5 E4"/>
    </vehicle>
    <vehicle id="veh_62" type="motorcycle" depart="69.38">
        <route edges="E2 E4"/>
    </vehicle>
    <vehicle id="veh_78" type="passenger" depart="71.88">
        <route edges="-E6 E4"/>
    </vehicle>
    <vehicle id="veh_64" type="bus" depart="71.94">
        <route edges="E0 E2 E5"/>
    </vehicle>
    <vehicle id="veh_27" type="passenger" depart="72.79">
        <route edges="-E5 E4"/>
    </vehicle>
    <vehicle id="veh_8" type="truck" depart="73.09">
        <route edges="-E5 E6"/>
    </vehicle>
    <vehicle id="veh_26" type="passenger" depart="90.23">
        <route edges="-E6 -E2 -E0"/>
    </vehicle>
    <vehicle id="veh_66" type="passenger" depart="90.73">
        <route edges="-E4 -E2 -E0"/>
    </vehicle>
    <vehicle id="veh_57" type="bus" depart="93.98">
        <route edges="-E5 -E2 E1"/>
    </vehicle>
    <vehicle id="veh_71" type="motorcycle" depart="100.01">
        <route edges="-E1 -E0"/>
    </vehicle>
    <vehicle id="veh_43" type="passenger" depart="103.12">
        <route edges="-E4 -E2 -E0"/>
    </vehicle>
    <vehicle id="veh_85" type="motorcycle" depart="103.79">
        <route edges="-E1 E2 E5"/>
    </vehicle>
    <vehicle id="veh_45" type="passenger" depart="104.13">
        <route edges="-E5 -E2 E1"/>
    </vehicle>
    <vehicle id="veh_76" type="passenger" depart="109.85">
        <route edges="-E5 E4"/>
    </vehicle>
    <vehicle id="veh_38" type="passenger" depart="116.19">
        <route edges="E2 E5"/>
    </vehicle>
    <vehicle id="veh_32" type="truck" depart="116.33">
        <route edges="-E1 E2 E5"/>
    </vehicle>
    <vehicle id="veh_13" type="passenger" depart="117.03">
        <route edges="-E5 E6"/>
    </vehicle>
    <vehicle id="veh_42" type="bus" depart="120.47">
        <route edges="-E5 -E2 E1"/>
    </vehicle>
    <vehicle id="veh_11" type="motorcycle" depart="121.84">
        <route edges="E2 E4"/>
    </vehicle>
    <vehicle id="veh_20" type="passenger" depart="121.89">
        <route edges="-E5 E4"/>
    </vehicle>
    <vehicle id="veh_7" type="motorcycle" depart="127.35">
        <route edges="-E2 E3"/>
    </vehicle>
    <vehicle id="veh_10" type="motorcycle" depart="128.65">
        <route edges="-E3 E2 E6"/>
    </vehicle>
    <vehicle id="veh_46" type="passenger" depart="129.48">
        <route edges="-E4 -E2 E3"/>
    </vehicle>
    <vehicle id="veh_0" type="motorcycle" depart="138.71">
        <route edges="E2 E6"/>
    </vehicle>
    <vehicle id="veh_61" type="passenger" depart="143.32">
        <route edges="-E1 E2 E5"/>
    </vehicle>
    <vehicle id="veh_84" type="truck" depart="144.62">
        <route edges="-E6 -E2 -E0"/>
    </vehicle>
    <vehicle id="veh_54" type="passenger" depart="147.25">
        <route edges="-E4 -E2 -E0"/>
    </vehicle>
    <vehicle id="veh_55" type="passenger" depart="156.07">
        <route edges="E2"/>
    </vehicle>
    <vehicle id="veh_53" type="bus" depart="162.47">
        <route edges="-E4 -E2 E3"/>
    </vehicle>
    <vehicle id="veh_5" type="passenger" depart="163.55">
        <route edges="-E5 E4"/>
    </vehicle>
    <vehicle id="veh_70" type="passenger" depart="166.46">
        <route edges="-E5 E6"/>
    </vehicle>
    <vehicle id="veh_18" type="passenger" depart="178.15">
        <route edges="E2 E6"/>
    </vehicle>
    <vehicle id="veh_1" type="passenger" depart="186.79">
        <route edges="-E1 E2 E5"/>
    </vehicle>
    <vehicle id="veh_82" type="passenger" depart="190.32">
        <route edges="E2 E6"/>
    </vehicle>
    <vehicle id="veh_16" type="truck" depart="196.01">
        <route edges="-E1 E2 E5"/>
    </vehicle>
    <vehicle id="veh_65" type="passenger" depart="199.28">
        <route edges="-E3 E2 E4"/>
    </vehicle>
    <vehicle id="veh_44" type="passenger" depart="202.5">
        <route edges="E0 E2 E5"/>
    </vehicle>
    <vehicle id="veh_21" type="passenger" depart="202.77">
        <route edges="-E5 E4"/>
    </vehicle>
    <vehicle id="veh_50" type="passenger" depart="214.21">
        <route edges="-E2 E3"/>
    </vehicle>
    <vehicle id="veh_49" type="passenger" depart="216.0">
        <route edges="E0 E2 E4"/>
    </vehicle>
    <vehicle id="veh_17" type="truck" depart="218.43">
        <route edges="-E1 E2 E6"/>
    </vehicle>
    <vehicle id="veh_12" type="passenger" depart="220.6">
        <route edges="-E4 -E2 -E0"/>
    </vehicle>
    <vehicle id="veh_69" type="passenger" depart="224.05">
        <route edges="-E1 E2 E5"/>
    </vehicle>
    <vehicle id="veh_35" type="motorcycle" depart="235.39">
        <route edges="-E1 E2 E6"/>
    </vehicle>
    <vehicle id="veh_31" type="passenger" depart="241.65">
        <route edges="-E2 E1"/>
    </vehicle>
    <vehicle id="veh_41" type="passenger" depart="255.35">
        <route edges="-E3 E2 E6"/>
    </vehicle>
    <vehicle id="veh_37" type="passenger" depart="256.23">
        <route edges="-E5 -E2 E1"/>
    </vehicle>
    <vehicle id="veh_59" type="passenger" depart="266.89">
        <route edges="-E3 E2 E4"/>
    </vehicle>
    <vehicle id="veh_56" type="passenger" depart="270.41">
        <route edges="E0 E2 E5"/>
    </vehicle>
    <vehicle id="veh_30" type="passenger" depart="272.64">
        <route edges="-E5 E6"/>
    </vehicle>
    <vehicle id="veh_47" type="passenger" depart="277.26">
        <route edges="E2 E5"/>
    </vehicle>
    <vehicle id="veh_81" type="truck" depart="278.86">
        <route edges="E0 E2 E5"/>
    </vehicle>
    <vehicle id="veh_52" type="motorcycle" depart="280.21">
        <route edges="-E3 E2 E4"/>
    </vehicle>
    <vehicle id="veh_48" type="passenger" depart="283.03">
        <route edges="E0 E2 E4"/>
    </vehicle>
    <vehicle id="veh_4" type="passenger" depart="288.22">
        <route edges="E0 E2 E5"/>
    </vehicle>
    <vehicle id="veh_86" type="passenger" depart="290.14">
        <route edges="-E4 -E2 -E0"/>
    </vehicle>
    <vehicle id="veh_36" type="passenger" depart="299.42">
        <route edges="-E2 E3"/>
    </vehicle>
    <vehicle id="veh_28" type="passenger" depart="305.8">
        <route edges="-E3 E2 E6"/>
    </vehicle>
    <vehicle id="veh_58" type="passenger" depart="306.63">
        <route edges="-E5 -E2 E1"/>
    </vehicle>
    <vehicle id="veh_60" type="passenger" depart="312.56">
        <route edges="E2 E4"/>
    </vehicle>
    <vehicle id="veh_9" type="passenger" depart="314.72">
        <route edges="-E1 E2 E6"/>
    </vehicle>
    <vehicle id="veh_72" type="passenger" depart="324.54">
        <route edges="-E1 E2 E6"/>
    </vehicle>
    <vehicle id="veh_73" type="passenger" depart="325.04">
        <route edges="E0 E3"/>
    </vehicle>
    <vehicle id="veh_2" type="bus" depart="332.7">
        <route edges="E0 E2 E5"/>
    </vehicle>
    <vehicle id="veh_25" type="passenger" depart="341.27">
        <route edges="-E4 -E2 -E0"/>
    </vehicle>
    <vehicle id="veh_29" type="passenger" depart="353.29">
        <route edges="-E1 E2 E5"/>
    </vehicle>
    <vehicle id="veh_83" type="bus" depart="354.11">
        <route edges="E2 E4"/>
    </vehicle>
    <vehicle id="veh_74" type="passenger" depart="354.72">
        <route edges="-E1 E2 E6"/>
    </vehicle>
    <vehicle id="veh_34" type="passenger" depart="360.92">
        <route edges="E2 E6"/>
    </vehicle>
    <vehicle id="veh_6" type="passenger" depart="362.69">
        <route edges="-E2 E3"/>
    </vehicle>
    <vehicle id="veh_22" type="passenger" depart="372.27">
        <route edges="-E2 E1"/>
    </vehicle>
    <vehicle id="veh_77" type="motorcycle" depart="372.3">
        <route edges="-E1 -E0"/>
    </vehicle>
    <vehicle id="veh_87" type="passenger" depart="376.14">
        <route edges="E0 E2 E5"/>
    </vehicle>
    <vehicle id="veh_40" type="passenger" depart="377.25">
        <route edges="E0 E2 E5"/>
    </vehicle>
    <vehicle id="veh_80" type="motorcycle" depart="379.27">
        <route edges="-E5 E6"/>
    </vehicle>
    <vehicle id="veh_63" type="passenger" depart="382.29">
        <route edges="E2 E4"/>
    </vehicle>
    <vehicle id="veh_75" type="passenger" depart="385.25">
        <route edges="-E5 E4"/>
    </vehicle>
</routes>
