<?xml version="1.0" encoding="UTF-8"?>
<routes>
    <vType id="passenger" accel="2.6" decel="4.5" sigma="0.5" length="5.0" minGap="2.5" maxSpeed="50.0" color="1,0,0"/>
    <vType id="bus" accel="1.2" decel="4.0" sigma="0.5" length="12.0" minGap="3.0" maxSpeed="30.0" color="0,0,1"/>
    <vType id="truck" accel="1.5" decel="3.5" sigma="0.5" length="10.0" minGap="3.0" maxSpeed="40.0" color="0,1,0"/>
    <vType id="motorcycle" accel="3.0" decel="5.0" sigma="0.5" length="2.5" minGap="1.5" maxSpeed="55.0" color="1,1,0"/>
    <vehicle id="veh_82" type="passenger" depart="4.76">
        <route edges="E2"/>
    </vehicle>
    <vehicle id="veh_45" type="passenger" depart="5.5">
        <route edges="-E3 E2 E6"/>
    </vehicle>
    <vehicle id="veh_8" type="passenger" depart="14.48">
        <route edges="-E1 E2 E6"/>
    </vehicle>
    <vehicle id="veh_4" type="passenger" depart="21.56">
        <route edges="-E5 E4"/>
    </vehicle>
    <vehicle id="veh_27" type="passenger" depart="23.76">
        <route edges="-E1 E2 E6"/>
    </vehicle>
    <vehicle id="veh_63" type="motorcycle" depart="24.96">
        <route edges="-E4 -E2 -E0"/>
    </vehicle>
    <vehicle id="veh_58" type="passenger" depart="27.11">
        <route edges="-E5 E6"/>
    </vehicle>
    <vehicle id="veh_18" type="passenger" depart="29.36">
        <route edges="E2 E4"/>
    </vehicle>
    <vehicle id="veh_62" type="passenger" depart="30.17">
        <route edges="E2 E6"/>
    </vehicle>
    <vehicle id="veh_2" type="bus" depart="32.19">
        <route edges="E0 E2 E4"/>
    </vehicle>
    <vehicle id="veh_60" type="passenger" depart="35.23">
        <route edges="-E6 E4"/>
    </vehicle>
    <vehicle id="veh_43" type="passenger" depart="38.61">
        <route edges="-E4 -E2 -E0"/>
    </vehicle>
    <vehicle id="veh_80" type="motorcycle" depart="41.89">
        <route edges="E2 E5"/>
    </vehicle>
    <vehicle id="veh_10" type="passenger" depart="49.02">
        <route edges="E2 E5"/>
    </vehicle>
    <vehicle id="veh_26" type="passenger" depart="55.17">
        <route edges="E2 E5"/>
    </vehicle>
    <vehicle id="veh_13" type="passenger" depart="60.2">
        <route edges="-E3 E2 E4"/>
    </vehicle>
    <vehicle id="veh_17" type="passenger" depart="69.31">
        <route edges="-E4 -E2 E3"/>
    </vehicle>
    <vehicle id="veh_34" type="passenger" depart="69.42">
        <route edges="-E3 E2 E6"/>
    </vehicle>
    <vehicle id="veh_30" type="bus" depart="74.51">
        <route edges="-E1 -E0"/>
    </vehicle>
    <vehicle id="veh_37" type="passenger" depart="77.03">
        <route edges="-E1 E2 E6"/>
    </vehicle>
    <vehicle id="veh_39" type="passenger" depart="84.67">
        <route edges="-E2 E3"/>
    </vehicle>
    <vehicle id="veh_74" type="bus" depart="102.1">
        <route edges="-E5 E6"/>
    </vehicle>
    <vehicle id="veh_66" type="passenger" depart="114.35">
        <route edges="E2 E4"/>
    </vehicle>
    <vehicle id="veh_15" type="passenger" depart="117.77">
        <route edges="-E1 E2 E6"/>
    </vehicle>
    <vehicle id="veh_36" type="passenger" depart="118.97">
        <route edges="-E6 E4"/>
    </vehicle>
    <vehicle id="veh_40" type="passenger" depart="122.81">
        <route edges="-E6 -E2 E3"/>
    </vehicle>
    <vehicle id="veh_51" type="truck" depart="135.18">
        <route edges="-E1 -E0"/>
    </vehicle>
    <vehicle id="veh_23" type="passenger" depart="137.52">
        <route edges="-E4 -E2 -E0"/>
    </vehicle>
    <vehicle id="veh_59" type="passenger" depart="140.27">
        <route edges="E2 E5"/>
    </vehicle>
    <vehicle id="veh_67" type="passenger" depart="142.1">
        <route edges="-E4 -E2 -E0"/>
    </vehicle>
    <vehicle id="veh_65" type="truck" depart="148.78">
        <route edges="-E1 E2 E5"/>
    </vehicle>
    <vehicle id="veh_75" type="motorcycle" depart="154.8">
        <route edges="-E6 -E2 E3"/>
    </vehicle>
    <vehicle id="veh_55" type="passenger" depart="156.76">
        <route edges="-E6 E4"/>
    </vehicle>
    <vehicle id="veh_5" type="truck" depart="162.71">
        <route edges="-E5 -E2 E1"/>
    </vehicle>
    <vehicle id="veh_48" type="passenger" depart="165.3">
        <route edges="-E6 E4"/>
    </vehicle>
    <vehicle id="veh_57" type="passenger" depart="167.93">
        <route edges="-E4 -E2 -E0"/>
    </vehicle>
    <vehicle id="veh_32" type="truck" depart="169.95">
        <route edges="-E3 E2 E6"/>
    </vehicle>
    <vehicle id="veh_83" type="passenger" depart="172.47">
        <route edges="-E3 E2 E6"/>
    </vehicle>
    <vehicle id="veh_12" type="passenger" depart="189.2">
        <route edges="E0 E3"/>
    </vehicle>
    <vehicle id="veh_84" type="motorcycle" depart="195.01">
        <route edges="-E5 -E2 E1"/>
    </vehicle>
    <vehicle id="veh_16" type="passenger" depart="195.17">
        <route edges="E2 E6"/>
    </vehicle>
    <vehicle id="veh_33" type="passenger" depart="204.1">
        <route edges="-E1 E2 E6"/>
    </vehicle>
    <vehicle id="veh_31" type="passenger" depart="212.18">
        <route edges="E0 E3"/>
    </vehicle>
    <vehicle id="veh_28" type="bus" depart="215.27">
        <route edges="-E5 -E2 E1"/>
    </vehicle>
    <vehicle id="veh_46" type="motorcycle" depart="217.82">
        <route edges="-E6 -E2 -E0"/>
    </vehicle>
    <vehicle id="veh_35" type="passenger" depart="225.31">
        <route edges="-E5 E4"/>
    </vehicle>
    <vehicle id="veh_11" type="passenger" depart="230.44">
        <route edges="-E2 E3"/>
    </vehicle>
    <vehicle id="veh_29" type="bus" depart="238.45">
        <route edges="E0 E2 E5"/>
    </vehicle>
    <vehicle id="veh_24" type="passenger" depart="241.81">
        <route edges="-E2 E3"/>
    </vehicle>
    <vehicle id="veh_42" type="passenger" depart="244.28">
        <route edges="-E1 E2 E5"/>
    </vehicle>
    <vehicle id="veh_49" type="passenger" depart="254.18">
        <route edges="-E3 E2 E6"/>
    </vehicle>
    <vehicle id="veh_22" type="truck" depart="254.81">
        <route edges="E0 E2 E5"/>
    </vehicle>
    <vehicle id="veh_76" type="passenger" depart="255.06">
        <route edges="-E6 -E2 E3"/>
    </vehicle>
    <vehicle id="veh_7" type="bus" depart="255.18">
        <route edges="-E4 -E2 -E0"/>
    </vehicle>
    <vehicle id="veh_3" type="motorcycle" depart="258.92">
        <route edges="-E6 -E2 -E0"/>
    </vehicle>
    <vehicle id="veh_53" type="passenger" depart="260.87">
        <route edges="-E5 E6"/>
    </vehicle>
    <vehicle id="veh_44" type="passenger" depart="267.06">
        <route edges="-E2 E1"/>
    </vehicle>
    <vehicle id="veh_87" type="passenger" depart="271.98">
        <route edges="-E2 E3"/>
    </vehicle>
    <vehicle id="veh_50" type="passenger" depart="275.8">
        <route edges="-E1 E2 E5"/>
    </vehicle>
    <vehicle id="veh_47" type="motorcycle" depart="278.71">
        <route edges="E2 E6"/>
    </vehicle>
    <vehicle id="veh_54" type="passenger" depart="280.51">
        <route edges="E0 E2 E4"/>
    </vehicle>
    <vehicle id="veh_19" type="passenger" depart="283.67">
        <route edges="E2 E5"/>
    </vehicle>
    <vehicle id="veh_9" type="passenger" depart="294.17">
        <route edges="-E5 E4"/>
    </vehicle>
    <vehicle id="veh_77" type="passenger" depart="298.61">
        <route edges="-E3 E2 E4"/>
    </vehicle>
    <vehicle id="veh_72" type="truck" depart="305.76">
        <route edges="E0 E2 E4"/>
    </vehicle>
    <vehicle id="veh_25" type="passenger" depart="307.85">
        <route edges="-E6 -E2 E3"/>
    </vehicle>
    <vehicle id="veh_38" type="passenger" depart="310.11">
        <route edges="E2 E4"/>
    </vehicle>
    <vehicle id="veh_20" type="truck" depart="314.82">
        <route edges="-E2 E1"/>
    </vehicle>
    <vehicle id="veh_56" type="passenger" depart="324.45">
        <route edges="-E6 -E2 -E0"/>
    </vehicle>
    <vehicle id="veh_86" type="passenger" depart="330.03">
        <route edges="E0 E2 E4"/>
    </vehicle>
    <vehicle id="veh_70" type="truck" depart="331.32">
        <route edges="E2 E5"/>
    </vehicle>
    <vehicle id="veh_69" type="passenger" depart="333.95">
        <route edges="-E1 -E0"/>
    </vehicle>
    <vehicle id="veh_61" type="passenger" depart="337.15">
        <route edges="-E2 E3"/>
    </vehicle>
    <vehicle id="veh_52" type="passenger" depart="341.87">
        <route edges="-E2 E3"/>
    </vehicle>
    <vehicle id="veh_1" type="bus" depart="352.73">
        <route edges="E2 E6"/>
    </vehicle>
    <vehicle id="veh_6" type="passenger" depart="353.89">
        <route edges="E2"/>
    </vehicle>
    <vehicle id="veh_14" type="passenger" depart="355.02">
        <route edges="E2 E4"/>
    </vehicle>
    <vehicle id="veh_81" type="passenger" depart="355.47">
        <route edges="-E6 -E2 -E0"/>
    </vehicle>
    <vehicle id="veh_64" type="passenger" depart="356.81">
        <route edges="-E1 -E0"/>
    </vehicle>
    <vehicle id="veh_41" type="passenger" depart="357.47">
        <route edges="-E2 E3"/>
    </vehicle>
    <vehicle id="veh_21" type="motorcycle" depart="366.17">
        <route edges="E2"/>
    </vehicle>
    <vehicle id="veh_68" type="truck" depart="371.84">
        <route edges="E0 E3"/>
    </vehicle>
    <vehicle id="veh_73" type="passenger" depart="374.11">
        <route edges="E2 E4"/>
    </vehicle>
    <vehicle id="veh_79" type="truck" depart="379.64">
        <route edges="E0 E2 E5"/>
    </vehicle>
    <vehicle id="veh_78" type="passenger" depart="386.85">
        <route edges="-E6 -E2 E3"/>
    </vehicle>
    <vehicle id="veh_85" type="passenger" depart="386.95">
        <route edges="-E5 E6"/>
    </vehicle>
    <vehicle id="veh_71" type="passenger" depart="393.05">
        <route edges="E0 E3"/>
    </vehicle>
    <vehicle id="veh_0" type="bus" depart="397.82">
        <route edges="E0 E3"/>
    </vehicle>
</routes>
