<?xml version="1.0" encoding="UTF-8"?>
<routes>
    <vType id="passenger" accel="2.6" decel="4.5" sigma="0.5" length="5.0" minGap="2.5" maxSpeed="50.0" color="1,0,0"/>
    <vType id="bus" accel="1.2" decel="4.0" sigma="0.5" length="12.0" minGap="3.0" maxSpeed="30.0" color="0,0,1"/>
    <vType id="truck" accel="1.5" decel="3.5" sigma="0.5" length="10.0" minGap="3.0" maxSpeed="40.0" color="0,1,0"/>
    <vType id="motorcycle" accel="3.0" decel="5.0" sigma="0.5" length="2.5" minGap="1.5" maxSpeed="55.0" color="1,1,0"/>
    <vehicle id="veh_6" type="passenger" depart="2.04">
        <route edges="E2"/>
    </vehicle>
    <vehicle id="veh_40" type="passenger" depart="8.09">
        <route edges="-E3 E2 E4"/>
    </vehicle>
    <vehicle id="veh_18" type="passenger" depart="23.79">
        <route edges="E2 E5"/>
    </vehicle>
    <vehicle id="veh_16" type="passenger" depart="23.93">
        <route edges="-E1 E2 E5"/>
    </vehicle>
    <vehicle id="veh_62" type="passenger" depart="24.65">
        <route edges="E2 E5"/>
    </vehicle>
    <vehicle id="veh_84" type="motorcycle" depart="29.57">
        <route edges="E0 E2 E4"/>
    </vehicle>
    <vehicle id="veh_81" type="passenger" depart="35.91">
        <route edges="-E6 -E2 -E0"/>
    </vehicle>
    <vehicle id="veh_48" type="passenger" depart="36.66">
        <route edges="-E4 -E2 -E0"/>
    </vehicle>
    <vehicle id="veh_57" type="passenger" depart="38.58">
        <route edges="-E5 -E2 E1"/>
    </vehicle>
    <vehicle id="veh_22" type="passenger" depart="39.62">
        <route edges="-E4 -E2 -E0"/>
    </vehicle>
    <vehicle id="veh_19" type="passenger" depart="46.4">
        <route edges="-E1 -E0"/>
    </vehicle>
    <vehicle id="veh_54" type="passenger" depart="47.05">
        <route edges="-E5 E4"/>
    </vehicle>
    <vehicle id="veh_39" type="truck" depart="52.77">
        <route edges="-E5 -E2 E1"/>
    </vehicle>
    <vehicle id="veh_70" type="motorcycle" depart="54.71">
        <route edges="-E3 E2 E6"/>
    </vehicle>
    <vehicle id="veh_45" type="bus" depart="55.12">
        <route edges="E0 E2 E4"/>
    </vehicle>
    <vehicle id="veh_67" type="passenger" depart="55.46">
        <route edges="-E5 -E2 E1"/>
    </vehicle>
    <vehicle id="veh_25" type="bus" depart="57.42">
        <route edges="-E6 E4"/>
    </vehicle>
    <vehicle id="veh_53" type="passenger" depart="62.35">
        <route edges="-E6 E4"/>
    </vehicle>
    <vehicle id="veh_23" type="bus" depart="70.04">
        <route edges="-E3 E2 E4"/>
    </vehicle>
    <vehicle id="veh_36" type="passenger" depart="83.71">
        <route edges="-E2 E3"/>
    </vehicle>
    <vehicle id="veh_1" type="passenger" depart="84.92">
        <route edges="-E6 E4"/>
    </vehicle>
    <vehicle id="veh_31" type="passenger" depart="86.22">
        <route edges="-E3 E2 E6"/>
    </vehicle>
    <vehicle id="veh_11" type="passenger" depart="99.84">
        <route edges="E2"/>
    </vehicle>
    <vehicle id="veh_85" type="passenger" depart="102.87">
        <route edges="-E1 -E0"/>
    </vehicle>
    <vehicle id="veh_7" type="passenger" depart="110.12">
        <route edges="-E6 -E2 E3"/>
    </vehicle>
    <vehicle id="veh_55" type="passenger" depart="117.18">
        <route edges="E0 E3"/>
    </vehicle>
    <vehicle id="veh_50" type="passenger" depart="142.37">
        <route edges="E2 E6"/>
    </vehicle>
    <vehicle id="veh_80" type="passenger" depart="144.09">
        <route edges="-E5 E4"/>
    </vehicle>
    <vehicle id="veh_58" type="passenger" depart="148.91">
        <route edges="E2 E5"/>
    </vehicle>
    <vehicle id="veh_68" type="passenger" depart="153.11">
        <route edges="-E4 -E2 E3"/>
    </vehicle>
    <vehicle id="veh_72" type="truck" depart="155.82">
        <route edges="-E3 E2 E4"/>
    </vehicle>
    <vehicle id="veh_63" type="truck" depart="161.4">
        <route edges="-E5 E4"/>
    </vehicle>
    <vehicle id="veh_13" type="truck" depart="173.0">
        <route edges="-E1 E2 E5"/>
    </vehicle>
    <vehicle id="veh_83" type="passenger" depart="173.85">
        <route edges="E0 E3"/>
    </vehicle>
    <vehicle id="veh_51" type="passenger" depart="174.65">
        <route edges="E2 E4"/>
    </vehicle>
    <vehicle id="veh_30" type="passenger" depart="175.88">
        <route edges="E2 E4"/>
    </vehicle>
    <vehicle id="veh_64" type="motorcycle" depart="179.18">
        <route edges="-E6 -E2 -E0"/>
    </vehicle>
    <vehicle id="veh_4" type="passenger" depart="185.87">
        <route edges="E2 E5"/>
    </vehicle>
    <vehicle id="veh_12" type="truck" depart="186.31">
        <route edges="-E6 -E2 -E0"/>
    </vehicle>
    <vehicle id="veh_69" type="passenger" depart="190.74">
        <route edges="-E1 E2 E5"/>
    </vehicle>
    <vehicle id="veh_0" type="passenger" depart="195.63">
        <route edges="-E3 E2 E6"/>
    </vehicle>
    <vehicle id="veh_20" type="passenger" depart="197.55">
        <route edges="-E6 -E2 -E0"/>
    </vehicle>
    <vehicle id="veh_47" type="passenger" depart="202.63">
        <route edges="-E5 E4"/>
    </vehicle>
    <vehicle id="veh_32" type="passenger" depart="205.42">
        <route edges="-E1 E2 E5"/>
    </vehicle>
    <vehicle id="veh_52" type="bus" depart="206.15">
        <route edges="-E5 E6"/>
    </vehicle>
    <vehicle id="veh_82" type="passenger" depart="206.23">
        <route edges="-E3 E2 E6"/>
    </vehicle>
    <vehicle id="veh_65" type="motorcycle" depart="216.4">
        <route edges="-E2 E1"/>
    </vehicle>
    <vehicle id="veh_46" type="passenger" depart="220.34">
        <route edges="-E1 -E0"/>
    </vehicle>
    <vehicle id="veh_59" type="truck" depart="230.48">
        <route edges="-E5 E4"/>
    </vehicle>
    <vehicle id="veh_26" type="passenger" depart="230.63">
        <route edges="-E4 -E2 E3"/>
    </vehicle>
    <vehicle id="veh_9" type="passenger" depart="230.73">
        <route edges="E2 E4"/>
    </vehicle>
    <vehicle id="veh_8" type="passenger" depart="234.45">
        <route edges="-E5 E6"/>
    </vehicle>
    <vehicle id="veh_44" type="bus" depart="234.52">
        <route edges="E0 E2 E4"/>
    </vehicle>
    <vehicle id="veh_71" type="passenger" depart="235.46">
        <route edges="-E3 E2 E6"/>
    </vehicle>
    <vehicle id="veh_24" type="truck" depart="237.63">
        <route edges="-E4 -E2 E3"/>
    </vehicle>
    <vehicle id="veh_34" type="passenger" depart="247.3">
        <route edges="-E6 -E2 E3"/>
    </vehicle>
    <vehicle id="veh_10" type="bus" depart="250.06">
        <route edges="-E5 -E2 E1"/>
    </vehicle>
    <vehicle id="veh_75" type="motorcycle" depart="254.72">
        <route edges="E0 E2 E5"/>
    </vehicle>
    <vehicle id="veh_41" type="passenger" depart="254.73">
        <route edges="-E5 E6"/>
    </vehicle>
    <vehicle id="veh_17" type="passenger" depart="268.03">
        <route edges="-E1 -E0"/>
    </vehicle>
    <vehicle id="veh_86" type="bus" depart="270.88">
        <route edges="-E4 -E2 E3"/>
    </vehicle>
    <vehicle id="veh_49" type="bus" depart="280.26">
        <route edges="-E1 -E0"/>
    </vehicle>
    <vehicle id="veh_27" type="passenger" depart="282.26">
        <route edges="-E2 E1"/>
    </vehicle>
    <vehicle id="veh_56" type="passenger" depart="283.34">
        <route edges="E2 E5"/>
    </vehicle>
    <vehicle id="veh_73" type="passenger" depart="287.19">
        <route edges="E2 E6"/>
    </vehicle>
    <vehicle id="veh_15" type="bus" depart="294.43">
        <route edges="E2 E5"/>
    </vehicle>
    <vehicle id="veh_2" type="motorcycle" depart="296.07">
        <route edges="-E6 E4"/>
    </vehicle>
    <vehicle id="veh_33" type="motorcycle" depart="296.6">
        <route edges="-E1 -E0"/>
    </vehicle>
    <vehicle id="veh_78" type="truck" depart="303.22">
        <route edges="-E4 -E2 E3"/>
    </vehicle>
    <vehicle id="veh_29" type="passenger" depart="306.66">
        <route edges="-E3 E2 E6"/>
    </vehicle>
    <vehicle id="veh_60" type="passenger" depart="307.37">
        <route edges="-E6 -E2 E3"/>
    </vehicle>
    <vehicle id="veh_35" type="bus" depart="311.98">
        <route edges="-E6 E4"/>
    </vehicle>
    <vehicle id="veh_3" type="truck" depart="313.89">
        <route edges="-E1 E2 E6"/>
    </vehicle>
    <vehicle id="veh_79" type="passenger" depart="314.35">
        <route edges="E2 E6"/>
    </vehicle>
    <vehicle id="veh_77" type="motorcycle" depart="316.03">
        <route edges="E2"/>
    </vehicle>
    <vehicle id="veh_38" type="passenger" depart="319.74">
        <route edges="-E5 E4"/>
    </vehicle>
    <vehicle id="veh_61" type="passenger" depart="322.43">
        <route edges="E0 E2 E4"/>
    </vehicle>
    <vehicle id="veh_5" type="passenger" depart="334.4">
        <route edges="-E5 E6"/>
    </vehicle>
    <vehicle id="veh_87" type="passenger" depart="335.63">
        <route edges="-E5 E6"/>
    </vehicle>
    <vehicle id="veh_42" type="passenger" depart="336.14">
        <route edges="E2 E6"/>
    </vehicle>
    <vehicle id="veh_43" type="passenger" depart="336.88">
        <route edges="E0 E2 E4"/>
    </vehicle>
    <vehicle id="veh_14" type="passenger" depart="341.36">
        <route edges="-E6 -E2 E3"/>
    </vehicle>
    <vehicle id="veh_21" type="passenger" depart="350.77">
        <route edges="E2 E4"/>
    </vehicle>
    <vehicle id="veh_76" type="motorcycle" depart="352.45">
        <route edges="-E5 E4"/>
    </vehicle>
    <vehicle id="veh_66" type="passenger" depart="362.0">
        <route edges="-E1 -E0"/>
    </vehicle>
    <vehicle id="veh_28" type="bus" depart="372.97">
        <route edges="-E1 E2 E5"/>
    </vehicle>
    <vehicle id="veh_74" type="motorcycle" depart="378.37">
        <route edges="E0 E2 E4"/>
    </vehicle>
    <vehicle id="veh_37" type="motorcycle" depart="382.67">
        <route edges="-E6 -E2 E3"/>
    </vehicle>
</routes>
