<?xml version="1.0" encoding="UTF-8"?>
<routes>
    <vType id="passenger" accel="2.6" decel="4.5" sigma="0.5" length="5.0" minGap="2.5" maxSpeed="50.0" color="1,0,0"/>
    <vType id="bus" accel="1.2" decel="4.0" sigma="0.5" length="12.0" minGap="3.0" maxSpeed="30.0" color="0,0,1"/>
    <vType id="truck" accel="1.5" decel="3.5" sigma="0.5" length="10.0" minGap="3.0" maxSpeed="40.0" color="0,1,0"/>
    <vType id="motorcycle" accel="3.0" decel="5.0" sigma="0.5" length="2.5" minGap="1.5" maxSpeed="55.0" color="1,1,0"/>
    <vehicle id="veh_68" type="passenger" depart="2.0">
        <route edges="E2"/>
    </vehicle>
    <vehicle id="veh_56" type="truck" depart="2.19">
        <route edges="E0 E3"/>
    </vehicle>
    <vehicle id="veh_75" type="passenger" depart="3.0">
        <route edges="-E1 E2 E5"/>
    </vehicle>
    <vehicle id="veh_42" type="passenger" depart="6.17">
        <route edges="E0 E2 E5"/>
    </vehicle>
    <vehicle id="veh_34" type="truck" depart="10.06">
        <route edges="-E5 -E2 E1"/>
    </vehicle>
    <vehicle id="veh_59" type="passenger" depart="12.75">
        <route edges="-E1 E2 E5"/>
    </vehicle>
    <vehicle id="veh_35" type="passenger" depart="22.22">
        <route edges="-E5 E4"/>
    </vehicle>
    <vehicle id="veh_60" type="motorcycle" depart="25.3">
        <route edges="-E4 -E2 -E0"/>
    </vehicle>
    <vehicle id="veh_82" type="passenger" depart="27.96">
        <route edges="E2 E6"/>
    </vehicle>
    <vehicle id="veh_19" type="passenger" depart="35.5">
        <route edges="-E3 E2 E4"/>
    </vehicle>
    <vehicle id="veh_74" type="passenger" depart="39.1">
        <route edges="-E1 E2 E6"/>
    </vehicle>
    <vehicle id="veh_36" type="passenger" depart="40.76">
        <route edges="-E6 -E2 -E0"/>
    </vehicle>
    <vehicle id="veh_6" type="bus" depart="45.63">
        <route edges="-E6 E4"/>
    </vehicle>
    <vehicle id="veh_23" type="passenger" depart="48.37">
        <route edges="-E3 E2 E6"/>
    </vehicle>
    <vehicle id="veh_47" type="passenger" depart="51.54">
        <route edges="-E2 E3"/>
    </vehicle>
    <vehicle id="veh_46" type="bus" depart="54.84">
        <route edges="E2 E5"/>
    </vehicle>
    <vehicle id="veh_54" type="passenger" depart="58.08">
        <route edges="-E2 E3"/>
    </vehicle>
    <vehicle id="veh_48" type="passenger" depart="62.98">
        <route edges="-E5 E6"/>
    </vehicle>
    <vehicle id="veh_57" type="passenger" depart="63.28">
        <route edges="-E4 -E2 E3"/>
    </vehicle>
    <vehicle id="veh_58" type="passenger" depart="64.02">
        <route edges="-E6 -E2 -E0"/>
    </vehicle>
    <vehicle id="veh_33" type="passenger" depart="69.18">
        <route edges="-E6 -E2 E3"/>
    </vehicle>
    <vehicle id="veh_65" type="passenger" depart="70.0">
        <route edges="-E3 E2 E6"/>
    </vehicle>
    <vehicle id="veh_73" type="motorcycle" depart="74.92">
        <route edges="-E3 E2 E4"/>
    </vehicle>
    <vehicle id="veh_71" type="passenger" depart="78.12">
        <route edges="-E3 E2 E4"/>
    </vehicle>
    <vehicle id="veh_18" type="truck" depart="80.15">
        <route edges="E0 E3"/>
    </vehicle>
    <vehicle id="veh_67" type="passenger" depart="82.9">
        <route edges="-E5 E4"/>
    </vehicle>
    <vehicle id="veh_83" type="passenger" depart="84.66">
        <route edges="E2 E4"/>
    </vehicle>
    <vehicle id="veh_86" type="passenger" depart="84.68">
        <route edges="-E4 -E2 -E0"/>
    </vehicle>
    <vehicle id="veh_30" type="passenger" depart="88.67">
        <route edges="E0 E3"/>
    </vehicle>
    <vehicle id="veh_64" type="passenger" depart="104.0">
        <route edges="-E1 E2 E5"/>
    </vehicle>
    <vehicle id="veh_11" type="bus" depart="109.24">
        <route edges="E0 E2 E4"/>
    </vehicle>
    <vehicle id="veh_51" type="passenger" depart="111.83">
        <route edges="-E5 E4"/>
    </vehicle>
    <vehicle id="veh_77" type="passenger" depart="113.79">
        <route edges="E2 E4"/>
    </vehicle>
    <vehicle id="veh_53" type="passenger" depart="116.69">
        <route edges="-E6 E4"/>
    </vehicle>
    <vehicle id="veh_29" type="passenger" depart="123.96">
        <route edges="-E5 E6"/>
    </vehicle>
    <vehicle id="veh_20" type="passenger" depart="124.6">
        <route edges="-E6 -E2 -E0"/>
    </vehicle>
    <vehicle id="veh_25" type="passenger" depart="131.11">
        <route edges="-E1 E2 E6"/>
    </vehicle>
    <vehicle id="veh_3" type="passenger" depart="133.5">
        <route edges="E2 E5"/>
    </vehicle>
    <vehicle id="veh_24" type="passenger" depart="141.01">
        <route edges="-E3 E2 E6"/>
    </vehicle>
    <vehicle id="veh_21" type="motorcycle" depart="146.09">
        <route edges="E2 E5"/>
    </vehicle>
    <vehicle id="veh_52" type="passenger" depart="148.56">
        <route edges="-E2 E3"/>
    </vehicle>
    <vehicle id="veh_10" type="passenger" depart="157.89">
        <route edges="E0 E2 E4"/>
    </vehicle>
    <vehicle id="veh_17" type="bus" depart="159.17">
        <route edges="E2"/>
    </vehicle>
    <vehicle id="veh_85" type="passenger" depart="168.84">
        <route edges="E2 E5"/>
    </vehicle>
    <vehicle id="veh_76" type="motorcycle" depart="172.33">
        <route edges="-E4 -E2 E3"/>
    </vehicle>
    <vehicle id="veh_50" type="passenger" depart="174.83">
        <route edges="-E4 -E2 E3"/>
    </vehicle>
    <vehicle id="veh_78" type="passenger" depart="182.71">
        <route edges="E2 E4"/>
    </vehicle>
    <vehicle id="veh_37" type="passenger" depart="187.86">
        <route edges="-E2 E1"/>
    </vehicle>
    <vehicle id="veh_87" type="bus" depart="194.49">
        <route edges="-E1 E2 E6"/>
    </vehicle>
    <vehicle id="veh_13" type="passenger" depart="195.64">
        <route edges="E2 E4"/>
    </vehicle>
    <vehicle id="veh_38" type="motorcycle" depart="199.42">
        <route edges="-E1 E2 E5"/>
    </vehicle>
    <vehicle id="veh_72" type="passenger" depart="202.75">
        <route edges="-E1 E2 E6"/>
    </vehicle>
    <vehicle id="veh_28" type="passenger" depart="209.43">
        <route edges="-E4 -E2 E3"/>
    </vehicle>
    <vehicle id="veh_44" type="passenger" depart="210.15">
        <route edges="E2 E5"/>
    </vehicle>
    <vehicle id="veh_81" type="passenger" depart="212.97">
        <route edges="E2 E6"/>
    </vehicle>
    <vehicle id="veh_43" type="passenger" depart="224.35">
        <route edges="-E4 -E2 -E0"/>
    </vehicle>
    <vehicle id="veh_22" type="passenger" depart="227.55">
        <route edges="-E1 -E0"/>
    </vehicle>
    <vehicle id="veh_32" type="bus" depart="240.69">
        <route edges="-E6 -E2 E3"/>
    </vehicle>
    <vehicle id="veh_4" type="passenger" depart="255.35">
        <route edges="-E1 E2 E5"/>
    </vehicle>
    <vehicle id="veh_79" type="passenger" depart="260.17">
        <route edges="-E5 E6"/>
    </vehicle>
    <vehicle id="veh_0" type="passenger" depart="260.77">
        <route edges="-E5 -E2 E1"/>
    </vehicle>
    <vehicle id="veh_2" type="passenger" depart="260.97">
        <route edges="-E1 E2 E5"/>
    </vehicle>
    <vehicle id="veh_66" type="truck" depart="269.61">
        <route edges="-E3 E2 E6"/>
    </vehicle>
    <vehicle id="veh_5" type="truck" depart="275.28">
        <route edges="-E3 E2 E6"/>
    </vehicle>
    <vehicle id="veh_27" type="passenger" depart="286.68">
        <route edges="-E5 E6"/>
    </vehicle>
    <vehicle id="veh_14" type="passenger" depart="286.85">
        <route edges="-E1 E2 E6"/>
    </vehicle>
    <vehicle id="veh_9" type="passenger" depart="290.62">
        <route edges="-E4 -E2 E3"/>
    </vehicle>
    <vehicle id="veh_62" type="truck" depart="308.77">
        <route edges="-E5 -E2 E1"/>
    </vehicle>
    <vehicle id="veh_80" type="bus" depart="313.2">
        <route edges="-E6 -E2 -E0"/>
    </vehicle>
    <vehicle id="veh_15" type="passenger" depart="318.78">
        <route edges="-E5 -E2 E1"/>
    </vehicle>
    <vehicle id="veh_40" type="passenger" depart="318.91">
        <route edges="-E3 E2 E4"/>
    </vehicle>
    <vehicle id="veh_69" type="bus" depart="322.68">
        <route edges="-E4 -E2 E3"/>
    </vehicle>
    <vehicle id="veh_49" type="bus" depart="327.46">
        <route edges="E0 E3"/>
    </vehicle>
    <vehicle id="veh_7" type="passenger" depart="332.03">
        <route edges="-E3 E2 E4"/>
    </vehicle>
    <vehicle id="veh_8" type="motorcycle" depart="337.04">
        <route edges="-E4 -E2 E3"/>
    </vehicle>
    <vehicle id="veh_84" type="passenger" depart="341.32">
        <route edges="-E5 E4"/>
    </vehicle>
    <vehicle id="veh_55" type="passenger" depart="341.85">
        <route edges="-E3 E2 E6"/>
    </vehicle>
    <vehicle id="veh_31" type="motorcycle" depart="343.02">
        <route edges="-E2 E1"/>
    </vehicle>
    <vehicle id="veh_26" type="motorcycle" depart="357.84">
        <route edges="-E1 E2 E6"/>
    </vehicle>
    <vehicle id="veh_41" type="passenger" depart="359.62">
        <route edges="E0 E2 E5"/>
    </vehicle>
    <vehicle id="veh_70" type="passenger" depart="361.54">
        <route edges="E0 E3"/>
    </vehicle>
    <vehicle id="veh_16" type="passenger" depart="366.83">
        <route edges="-E4 -E2 E3"/>
    </vehicle>
    <vehicle id="veh_1" type="passenger" depart="369.95">
        <route edges="-E4 -E2 -E0"/>
    </vehicle>
    <vehicle id="veh_12" type="passenger" depart="370.09">
        <route edges="-E5 E6"/>
    </vehicle>
    <vehicle id="veh_61" type="passenger" depart="372.14">
        <route edges="E0 E2 E5"/>
    </vehicle>
    <vehicle id="veh_45" type="truck" depart="381.27">
        <route edges="-E5 E4"/>
    </vehicle>
    <vehicle id="veh_39" type="passenger" depart="381.33">
        <route edges="-E2 E3"/>
    </vehicle>
    <vehicle id="veh_63" type="passenger" depart="386.69">
        <route edges="E2 E5"/>
    </vehicle>
</routes>
