<?xml version="1.0" encoding="UTF-8"?>
<routes>
    <vType id="passenger" accel="2.6" decel="4.5" sigma="0.5" length="5.0" minGap="2.5" maxSpeed="50.0" color="1,0,0"/>
    <vType id="bus" accel="1.2" decel="4.0" sigma="0.5" length="12.0" minGap="3.0" maxSpeed="30.0" color="0,0,1"/>
    <vType id="truck" accel="1.5" decel="3.5" sigma="0.5" length="10.0" minGap="3.0" maxSpeed="40.0" color="0,1,0"/>
    <vType id="motorcycle" accel="3.0" decel="5.0" sigma="0.5" length="2.5" minGap="1.5" maxSpeed="55.0" color="1,1,0"/>
    <vehicle id="veh_4" type="passenger" depart="6.75">
        <route edges="-E6 E4"/>
    </vehicle>
    <vehicle id="veh_66" type="passenger" depart="10.06">
        <route edges="-E3 E2 E6"/>
    </vehicle>
    <vehicle id="veh_49" type="passenger" depart="12.96">
        <route edges="-E2 E1"/>
    </vehicle>
    <vehicle id="veh_82" type="motorcycle" depart="15.5">
        <route edges="-E1 E2 E5"/>
    </vehicle>
    <vehicle id="veh_0" type="passenger" depart="15.61">
        <route edges="-E6 -E2 E3"/>
    </vehicle>
    <vehicle id="veh_72" type="passenger" depart="16.79">
        <route edges="-E1 E2 E6"/>
    </vehicle>
    <vehicle id="veh_57" type="passenger" depart="19.97">
        <route edges="-E6 E4"/>
    </vehicle>
    <vehicle id="veh_85" type="passenger" depart="21.2">
        <route edges="-E3 E2 E4"/>
    </vehicle>
    <vehicle id="veh_80" type="passenger" depart="22.93">
        <route edges="E2 E4"/>
    </vehicle>
    <vehicle id="veh_10" type="passenger" depart="23.37">
        <route edges="-E6 -E2 E3"/>
    </vehicle>
    <vehicle id="veh_50" type="bus" depart="25.66">
        <route edges="-E5 E6"/>
    </vehicle>
    <vehicle id="veh_3" type="passenger" depart="33.81">
        <route edges="-E6 -E2 -E0"/>
    </vehicle>
    <vehicle id="veh_47" type="passenger" depart="34.29">
        <route edges="-E1 E2 E6"/>
    </vehicle>
    <vehicle id="veh_6" type="passenger" depart="42.11">
        <route edges="E0 E3"/>
    </vehicle>
    <vehicle id="veh_29" type="passenger" depart="44.76">
        <route edges="-E1 E2 E6"/>
    </vehicle>
    <vehicle id="veh_68" type="passenger" depart="50.8">
        <route edges="-E3 E2 E6"/>
    </vehicle>
    <vehicle id="veh_12" type="motorcycle" depart="52.0">
        <route edges="-E1 -E0"/>
    </vehicle>
    <vehicle id="veh_51" type="passenger" depart="53.95">
        <route edges="E2 E4"/>
    </vehicle>
    <vehicle id="veh_15" type="passenger" depart="54.46">
        <route edges="-E1 -E0"/>
    </vehicle>
    <vehicle id="veh_43" type="truck" depart="58.08">
        <route edges="-E5 -E2 E1"/>
    </vehicle>
    <vehicle id="veh_7" type="passenger" depart="59.11">
        <route edges="E2"/>
    </vehicle>
    <vehicle id="veh_46" type="passenger" depart="60.63">
        <route edges="E0 E2 E5"/>
    </vehicle>
    <vehicle id="veh_71" type="passenger" depart="61.61">
        <route edges="-E4 -E2 -E0"/>
    </vehicle>
    <vehicle id="veh_9" type="passenger" depart="70.88">
        <route edges="E2 E6"/>
    </vehicle>
    <vehicle id="veh_69" type="passenger" depart="71.76">
        <route edges="-E5 -E2 E1"/>
    </vehicle>
    <vehicle id="veh_48" type="passenger" depart="72.61">
        <route edges="E2 E4"/>
    </vehicle>
    <vehicle id="veh_30" type="passenger" depart="89.1">
        <route edges="-E1 E2 E6"/>
    </vehicle>
    <vehicle id="veh_87" type="passenger" depart="91.25">
        <route edges="-E1 E2 E5"/>
    </vehicle>
    <vehicle id="veh_84" type="passenger" depart="95.8">
        <route edges="-E5 E6"/>
    </vehicle>
    <vehicle id="veh_32" type="passenger" depart="105.39">
        <route edges="-E1 E2 E6"/>
    </vehicle>
    <vehicle id="veh_21" type="truck" depart="106.21">
        <route edges="-E1 E2 E5"/>
    </vehicle>
    <vehicle id="veh_79" type="passenger" depart="108.15">
        <route edges="-E2 E1"/>
    </vehicle>
    <vehicle id="veh_22" type="passenger" depart="108.88">
        <route edges="-E1 E2 E5"/>
    </vehicle>
    <vehicle id="veh_33" type="passenger" depart="113.99">
        <route edges="E2"/>
    </vehicle>
    <vehicle id="veh_74" type="passenger" depart="118.71">
        <route edges="-E6 -E2 E3"/>
    </vehicle>
    <vehicle id="veh_36" type="truck" depart="131.72">
        <route edges="E0 E3"/>
    </vehicle>
    <vehicle id="veh_28" type="passenger" depart="140.89">
        <route edges="-E1 E2 E6"/>
    </vehicle>
    <vehicle id="veh_8" type="passenger" depart="147.66">
        <route edges="-E5 E6"/>
    </vehicle>
    <vehicle id="veh_5" type="passenger" depart="149.66">
        <route edges="E2"/>
    </vehicle>
    <vehicle id="veh_35" type="passenger" depart="151.53">
        <route edges="E0 E2 E4"/>
    </vehicle>
    <vehicle id="veh_23" type="bus" depart="156.29">
        <route edges="-E1 E2 E6"/>
    </vehicle>
    <vehicle id="veh_16" type="truck" depart="157.71">
        <route edges="-E6 -E2 -E0"/>
    </vehicle>
    <vehicle id="veh_39" type="bus" depart="158.52">
        <route edges="E2 E4"/>
    </vehicle>
    <vehicle id="veh_78" type="passenger" depart="171.04">
        <route edges="E2"/>
    </vehicle>
    <vehicle id="veh_13" type="passenger" depart="171.77">
        <route edges="-E3 E2 E6"/>
    </vehicle>
    <vehicle id="veh_75" type="truck" depart="177.54">
        <route edges="E0 E3"/>
    </vehicle>
    <vehicle id="veh_54" type="passenger" depart="197.15">
        <route edges="-E2 E3"/>
    </vehicle>
    <vehicle id="veh_44" type="passenger" depart="198.63">
        <route edges="-E1 -E0"/>
    </vehicle>
    <vehicle id="veh_27" type="passenger" depart="202.51">
        <route edges="E0 E2 E4"/>
    </vehicle>
    <vehicle id="veh_60" type="passenger" depart="206.55">
        <route edges="-E5 E4"/>
    </vehicle>
    <vehicle id="veh_2" type="passenger" depart="207.07">
        <route edges="E2 E6"/>
    </vehicle>
    <vehicle id="veh_63" type="bus" depart="224.42">
        <route edges="-E1 -E0"/>
    </vehicle>
    <vehicle id="veh_25" type="passenger" depart="224.74">
        <route edges="E2 E6"/>
    </vehicle>
    <vehicle id="veh_41" type="passenger" depart="225.61">
        <route edges="-E5 E4"/>
    </vehicle>
    <vehicle id="veh_77" type="passenger" depart="226.18">
        <route edges="-E2 E1"/>
    </vehicle>
    <vehicle id="veh_76" type="passenger" depart="229.09">
        <route edges="-E4 -E2 -E0"/>
    </vehicle>
    <vehicle id="veh_31" type="passenger" depart="229.71">
        <route edges="-E2 E3"/>
    </vehicle>
    <vehicle id="veh_58" type="passenger" depart="232.37">
        <route edges="-E1 E2 E6"/>
    </vehicle>
    <vehicle id="veh_45" type="passenger" depart="239.21">
        <route edges="E2"/>
    </vehicle>
    <vehicle id="veh_14" type="passenger" depart="246.76">
        <route edges="-E1 E2 E5"/>
    </vehicle>
    <vehicle id="veh_65" type="passenger" depart="248.49">
        <route edges="-E3 E2 E4"/>
    </vehicle>
    <vehicle id="veh_42" type="passenger" depart="249.51">
        <route edges="-E5 E4"/>
    </vehicle>
    <vehicle id="veh_81" type="bus" depart="249.57">
        <route edges="-E5 -E2 E1"/>
    </vehicle>
    <vehicle id="veh_53" type="passenger" depart="251.43">
        <route edges="-E1 E2 E6"/>
    </vehicle>
    <vehicle id="veh_37" type="passenger" depart="254.69">
        <route edges="-E5 E6"/>
    </vehicle>
    <vehicle id="veh_52" type="passenger" depart="254.84">
        <route edges="-E6 E4"/>
    </vehicle>
    <vehicle id="veh_18" type="passenger" depart="265.66">
        <route edges="-E5 E6"/>
    </vehicle>
    <vehicle id="veh_20" type="bus" depart="276.05">
        <route edges="-E3 E2 E4"/>
    </vehicle>
    <vehicle id="veh_59" type="passenger" depart="287.94">
        <route edges="-E4 -E2 E3"/>
    </vehicle>
    <vehicle id="veh_17" type="passenger" depart="289.62">
        <route edges="-E6 E4"/>
    </vehicle>
    <vehicle id="veh_1" type="passenger" depart="308.61">
        <route edges="-E5 E4"/>
    </vehicle>
    <vehicle id="veh_67" type="motorcycle" depart="331.02">
        <route edges="E0 E3"/>
    </vehicle>
    <vehicle id="veh_62" type="passenger" depart="331.52">
        <route edges="-E5 -E2 E1"/>
    </vehicle>
    <vehicle id="veh_64" type="truck" depart="339.97">
        <route edges="-E4 -E2 -E0"/>
    </vehicle>
    <vehicle id="veh_34" type="passenger" depart="340.95">
        <route edges="-E6 E4"/>
    </vehicle>
    <vehicle id="veh_56" type="passenger" depart="349.21">
        <route edges="E0 E2 E5"/>
    </vehicle>
    <vehicle id="veh_38" type="passenger" depart="350.41">
        <route edges="-E2 E3"/>
    </vehicle>
    <vehicle id="veh_11" type="passenger" depart="361.07">
        <route edges="E0 E2 E5"/>
    </vehicle>
    <vehicle id="veh_26" type="passenger" depart="368.42">
        <route edges="E2 E5"/>
    </vehicle>
    <vehicle id="veh_19" type="passenger" depart="370.39">
        <route edges="-E1 E2 E5"/>
    </vehicle>
    <vehicle id="veh_40" type="passenger" depart="372.54">
        <route edges="E2"/>
    </vehicle>
    <vehicle id="veh_55" type="passenger" depart="374.1">
        <route edges="-E6 -E2 -E0"/>
    </vehicle>
    <vehicle id="veh_24" type="bus" depart="374.12">
        <route edges="-E1 E2 E5"/>
    </vehicle>
    <vehicle id="veh_70" type="bus" depart="377.03">
        <route edges="-E6 -E2 E3"/>
    </vehicle>
    <vehicle id="veh_83" type="bus" depart="380.99">
        <route edges="E0 E2 E5"/>
    </vehicle>
    <vehicle id="veh_73" type="passenger" depart="383.98">
        <route edges="E2 E5"/>
    </vehicle>
    <vehicle id="veh_61" type="passenger" depart="387.45">
        <route edges="-E6 -E2 E3"/>
    </vehicle>
    <vehicle id="veh_86" type="bus" depart="398.76">
        <route edges="-E3 E2 E4"/>
    </vehicle>
</routes>
