<?xml version="1.0" encoding="UTF-8"?>
<routes>
    <vType id="passenger" accel="2.6" decel="4.5" sigma="0.5" length="5.0" minGap="2.5" maxSpeed="50.0" color="1,0,0"/>
    <vType id="bus" accel="1.2" decel="4.0" sigma="0.5" length="12.0" minGap="3.0" maxSpeed="30.0" color="0,0,1"/>
    <vType id="truck" accel="1.5" decel="3.5" sigma="0.5" length="10.0" minGap="3.0" maxSpeed="40.0" color="0,1,0"/>
    <vType id="motorcycle" accel="3.0" decel="5.0" sigma="0.5" length="2.5" minGap="1.5" maxSpeed="55.0" color="1,1,0"/>
    <vehicle id="veh_85" type="passenger" depart="1.86">
        <route edges="-E2 E3"/>
    </vehicle>
    <vehicle id="veh_66" type="passenger" depart="10.41">
        <route edges="E0 E2 E5"/>
    </vehicle>
    <vehicle id="veh_26" type="passenger" depart="12.1">
        <route edges="-E6 E4"/>
    </vehicle>
    <vehicle id="veh_11" type="passenger" depart="19.89">
        <route edges="E0 E2 E4"/>
    </vehicle>
    <vehicle id="veh_59" type="passenger" depart="24.49">
        <route edges="E0 E2 E4"/>
    </vehicle>
    <vehicle id="veh_79" type="passenger" depart="25.61">
        <route edges="E0 E2 E5"/>
    </vehicle>
    <vehicle id="veh_51" type="motorcycle" depart="26.65">
        <route edges="-E2 E3"/>
    </vehicle>
    <vehicle id="veh_49" type="passenger" depart="34.68">
        <route edges="-E5 E6"/>
    </vehicle>
    <vehicle id="veh_25" type="motorcycle" depart="41.76">
        <route edges="-E6 -E2 -E0"/>
    </vehicle>
    <vehicle id="veh_44" type="passenger" depart="45.34">
        <route edges="-E1 E2 E5"/>
    </vehicle>
    <vehicle id="veh_4" type="passenger" depart="45.48">
        <route edges="-E1 E2 E5"/>
    </vehicle>
    <vehicle id="veh_33" type="passenger" depart="49.39">
        <route edges="-E1 E2 E5"/>
    </vehicle>
    <vehicle id="veh_62" type="passenger" depart="59.78">
        <route edges="E2"/>
    </vehicle>
    <vehicle id="veh_38" type="bus" depart="62.52">
        <route edges="-E5 -E2 E1"/>
    </vehicle>
    <vehicle id="veh_71" type="passenger" depart="70.67">
        <route edges="-E5 E4"/>
    </vehicle>
    <vehicle id="veh_20" type="passenger" depart="77.4">
        <route edges="-E2 E1"/>
    </vehicle>
    <vehicle id="veh_22" type="passenger" depart="80.48">
        <route edges="-E6 -E2 -E0"/>
    </vehicle>
    <vehicle id="veh_12" type="passenger" depart="84.72">
        <route edges="E0 E2 E4"/>
    </vehicle>
    <vehicle id="veh_10" type="bus" depart="92.12">
        <route edges="-E5 -E2 E1"/>
    </vehicle>
    <vehicle id="veh_53" type="motorcycle" depart="92.9">
        <route edges="-E5 -E2 E1"/>
    </vehicle>
    <vehicle id="veh_31" type="motorcycle" depart="95.32">
        <route edges="-E6 -E2 E3"/>
    </vehicle>
    <vehicle id="veh_27" type="motorcycle" depart="97.62">
        <route edges="E2 E5"/>
    </vehicle>
    <vehicle id="veh_16" type="motorcycle" depart="104.36">
        <route edges="-E1 E2 E6"/>
    </vehicle>
    <vehicle id="veh_61" type="passenger" depart="106.77">
        <route edges="-E1 E2 E5"/>
    </vehicle>
    <vehicle id="veh_76" type="motorcycle" depart="106.79">
        <route edges="-E2 E3"/>
    </vehicle>
    <vehicle id="veh_83" type="bus" depart="107.02">
        <route edges="-E6 -E2 E3"/>
    </vehicle>
    <vehicle id="veh_3" type="passenger" depart="108.3">
        <route edges="-E1 E2 E5"/>
    </vehicle>
    <vehicle id="veh_57" type="passenger" depart="108.63">
        <route edges="-E2 E3"/>
    </vehicle>
    <vehicle id="veh_60" type="passenger" depart="111.01">
        <route edges="-E6 -E2 -E0"/>
    </vehicle>
    <vehicle id="veh_35" type="passenger" depart="113.88">
        <route edges="-E6 -E2 E3"/>
    </vehicle>
    <vehicle id="veh_41" type="passenger" depart="114.55">
        <route edges="E2"/>
    </vehicle>
    <vehicle id="veh_23" type="passenger" depart="125.41">
        <route edges="-E4 -E2 E3"/>
    </vehicle>
    <vehicle id="veh_75" type="passenger" depart="130.16">
        <route edges="E0 E2 E4"/>
    </vehicle>
    <vehicle id="veh_68" type="motorcycle" depart="136.11">
        <route edges="-E3 E2 E4"/>
    </vehicle>
    <vehicle id="veh_78" type="motorcycle" depart="139.61">
        <route edges="-E5 -E2 E1"/>
    </vehicle>
    <vehicle id="veh_84" type="passenger" depart="146.51">
        <route edges="E0 E2 E4"/>
    </vehicle>
    <vehicle id="veh_8" type="truck" depart="152.19">
        <route edges="E0 E2 E5"/>
    </vehicle>
    <vehicle id="veh_29" type="passenger" depart="160.97">
        <route edges="-E5 -E2 E1"/>
    </vehicle>
    <vehicle id="veh_1" type="bus" depart="161.76">
        <route edges="-E2 E1"/>
    </vehicle>
    <vehicle id="veh_82" type="passenger" depart="168.58">
        <route edges="-E4 -E2 -E0"/>
    </vehicle>
    <vehicle id="veh_34" type="passenger" depart="174.51">
        <route edges="-E4 -E2 E3"/>
    </vehicle>
    <vehicle id="veh_2" type="truck" depart="180.17">
        <route edges="E2"/>
    </vehicle>
    <vehicle id="veh_52" type="passenger" depart="180.22">
        <route edges="-E4 -E2 E3"/>
    </vehicle>
    <vehicle id="veh_58" type="truck" depart="183.54">
        <route edges="-E4 -E2 E3"/>
    </vehicle>
    <vehicle id="veh_15" type="passenger" depart="197.82">
        <route edges="-E1 E2 E6"/>
    </vehicle>
    <vehicle id="veh_9" type="passenger" depart="199.98">
        <route edges="-E4 -E2 E3"/>
    </vehicle>
    <vehicle id="veh_43" type="bus" depart="202.91">
        <route edges="-E6 E4"/>
    </vehicle>
    <vehicle id="veh_37" type="passenger" depart="202.97">
        <route edges="-E1 E2 E6"/>
    </vehicle>
    <vehicle id="veh_13" type="passenger" depart="205.24">
        <route edges="E2 E4"/>
    </vehicle>
    <vehicle id="veh_54" type="passenger" depart="212.88">
        <route edges="-E1 E2 E6"/>
    </vehicle>
    <vehicle id="veh_45" type="truck" depart="223.22">
        <route edges="E2 E6"/>
    </vehicle>
    <vehicle id="veh_36" type="passenger" depart="224.45">
        <route edges="-E6 E4"/>
    </vehicle>
    <vehicle id="veh_74" type="passenger" depart="234.13">
        <route edges="E0 E2 E4"/>
    </vehicle>
    <vehicle id="veh_32" type="passenger" depart="239.73">
        <route edges="-E1 E2 E5"/>
    </vehicle>
    <vehicle id="veh_64" type="motorcycle" depart="244.28">
        <route edges="-E5 -E2 E1"/>
    </vehicle>
    <vehicle id="veh_39" type="truck" depart="244.81">
        <route edges="-E5 -E2 E1"/>
    </vehicle>
    <vehicle id="veh_40" type="truck" depart="246.28">
        <route edges="-E4 -E2 -E0"/>
    </vehicle>
    <vehicle id="veh_46" type="passenger" depart="253.0">
        <route edges="-E2 E3"/>
    </vehicle>
    <vehicle id="veh_0" type="passenger" depart="254.83">
        <route edges="E0 E3"/>
    </vehicle>
    <vehicle id="veh_24" type="bus" depart="281.31">
        <route edges="E0 E2 E4"/>
    </vehicle>
    <vehicle id="veh_70" type="bus" depart="289.33">
        <route edges="-E1 E2 E6"/>
    </vehicle>
    <vehicle id="veh_55" type="bus" depart="289.45">
        <route edges="E2 E6"/>
    </vehicle>
    <vehicle id="veh_80" type="truck" depart="290.52">
        <route edges="-E1 E2 E5"/>
    </vehicle>
    <vehicle id="veh_81" type="passenger" depart="291.24">
        <route edges="-E4 -E2 -E0"/>
    </vehicle>
    <vehicle id="veh_19" type="passenger" depart="295.49">
        <route edges="-E5 -E2 E1"/>
    </vehicle>
    <vehicle id="veh_6" type="passenger" depart="298.59">
        <route edges="-E5 -E2 E1"/>
    </vehicle>
    <vehicle id="veh_77" type="passenger" depart="300.58">
        <route edges="-E5 E6"/>
    </vehicle>
    <vehicle id="veh_47" type="passenger" depart="309.21">
        <route edges="-E5 E6"/>
    </vehicle>
    <vehicle id="veh_50" type="bus" depart="310.35">
        <route edges="E0 E3"/>
    </vehicle>
    <vehicle id="veh_42" type="bus" depart="313.24">
        <route edges="-E3 E2 E6"/>
    </vehicle>
    <vehicle id="veh_69" type="passenger" depart="314.71">
        <route edges="E0 E3"/>
    </vehicle>
    <vehicle id="veh_30" type="bus" depart="319.1">
        <route edges="E2 E6"/>
    </vehicle>
    <vehicle id="veh_87" type="bus" depart="322.33">
        <route edges="-E3 E2 E4"/>
    </vehicle>
    <vehicle id="veh_67" type="passenger" depart="325.43">
        <route edges="E2 E6"/>
    </vehicle>
    <vehicle id="veh_17" type="passenger" depart="325.63">
        <route edges="E2 E5"/>
    </vehicle>
    <vehicle id="veh_86" type="motorcycle" depart="327.35">
        <route edges="-E6 -E2 E3"/>
    </vehicle>
    <vehicle id="veh_48" type="truck" depart="336.12">
        <route edges="-E6 -E2 E3"/>
    </vehicle>
    <vehicle id="veh_7" type="passenger" depart="337.83">
        <route edges="-E3 E2 E4"/>
    </vehicle>
    <vehicle id="veh_56" type="bus" depart="350.56">
        <route edges="-E5 E4"/>
    </vehicle>
    <vehicle id="veh_21" type="passenger" depart="355.13">
        <route edges="-E4 -E2 E3"/>
    </vehicle>
    <vehicle id="veh_28" type="truck" depart="355.53">
        <route edges="-E2 E1"/>
    </vehicle>
    <vehicle id="veh_14" type="motorcycle" depart="368.55">
        <route edges="E2 E6"/>
    </vehicle>
    <vehicle id="veh_18" type="passenger" depart="381.73">
        <route edges="E0 E2 E4"/>
    </vehicle>
    <vehicle id="veh_63" type="bus" depart="381.81">
        <route edges="E2 E6"/>
    </vehicle>
    <vehicle id="veh_72" type="passenger" depart="382.79">
        <route edges="E2 E4"/>
    </vehicle>
    <vehicle id="veh_73" type="passenger" depart="387.95">
        <route edges="-E1 E2 E6"/>
    </vehicle>
    <vehicle id="veh_5" type="truck" depart="391.73">
        <route edges="-E5 -E2 E1"/>
    </vehicle>
    <vehicle id="veh_65" type="passenger" depart="394.18">
        <route edges="E2 E6"/>
    </vehicle>
</routes>
