<?xml version="1.0" encoding="UTF-8"?>
<routes>
    <vType id="passenger" accel="2.6" decel="4.5" sigma="0.5" length="5.0" minGap="2.5" maxSpeed="50.0" color="1,0,0"/>
    <vType id="bus" accel="1.2" decel="4.0" sigma="0.5" length="12.0" minGap="3.0" maxSpeed="30.0" color="0,0,1"/>
    <vType id="truck" accel="1.5" decel="3.5" sigma="0.5" length="10.0" minGap="3.0" maxSpeed="40.0" color="0,1,0"/>
    <vType id="motorcycle" accel="3.0" decel="5.0" sigma="0.5" length="2.5" minGap="1.5" maxSpeed="55.0" color="1,1,0"/>
    <vehicle id="veh_57" type="passenger" depart="11.61">
        <route edges="-E3 E2 E6"/>
    </vehicle>
    <vehicle id="veh_68" type="passenger" depart="17.79">
        <route edges="-E2 E1"/>
    </vehicle>
    <vehicle id="veh_26" type="passenger" depart="19.01">
        <route edges="-E4 -E2 -E0"/>
    </vehicle>
    <vehicle id="veh_32" type="bus" depart="25.83">
        <route edges="-E3 E2 E4"/>
    </vehicle>
    <vehicle id="veh_15" type="truck" depart="25.96">
        <route edges="-E6 -E2 E3"/>
    </vehicle>
    <vehicle id="veh_51" type="passenger" depart="26.24">
        <route edges="-E1 E2 E6"/>
    </vehicle>
    <vehicle id="veh_66" type="passenger" depart="30.53">
        <route edges="-E3 E2 E4"/>
    </vehicle>
    <vehicle id="veh_11" type="bus" depart="32.98">
        <route edges="-E4 -E2 E3"/>
    </vehicle>
    <vehicle id="veh_59" type="passenger" depart="34.1">
        <route edges="-E6 -E2 E3"/>
    </vehicle>
    <vehicle id="veh_81" type="passenger" depart="34.4">
        <route edges="-E6 E4"/>
    </vehicle>
    <vehicle id="veh_48" type="passenger" depart="41.62">
        <route edges="E2 E6"/>
    </vehicle>
    <vehicle id="veh_78" type="passenger" depart="44.88">
        <route edges="-E6 E4"/>
    </vehicle>
    <vehicle id="veh_18" type="passenger" depart="47.97">
        <route edges="E2 E5"/>
    </vehicle>
    <vehicle id="veh_44" type="passenger" depart="65.48">
        <route edges="-E6 E4"/>
    </vehicle>
    <vehicle id="veh_13" type="passenger" depart="68.37">
        <route edges="E0 E3"/>
    </vehicle>
    <vehicle id="veh_76" type="passenger" depart="69.32">
        <route edges="-E5 -E2 E1"/>
    </vehicle>
    <vehicle id="veh_69" type="bus" depart="70.54">
        <route edges="-E2 E3"/>
    </vehicle>
    <vehicle id="veh_0" type="passenger" depart="70.6">
        <route edges="-E6 -E2 E3"/>
    </vehicle>
    <vehicle id="veh_34" type="passenger" depart="89.39">
        <route edges="-E6 E4"/>
    </vehicle>
    <vehicle id="veh_27" type="passenger" depart="92.84">
        <route edges="-E1 E2 E6"/>
    </vehicle>
    <vehicle id="veh_14" type="bus" depart="94.47">
        <route edges="-E5 E6"/>
    </vehicle>
    <vehicle id="veh_23" type="passenger" depart="96.64">
        <route edges="E2 E5"/>
    </vehicle>
    <vehicle id="veh_70" type="passenger" depart="99.56">
        <route edges="-E2 E1"/>
    </vehicle>
    <vehicle id="veh_46" type="passenger" depart="99.89">
        <route edges="-E6 -E2 -E0"/>
    </vehicle>
    <vehicle id="veh_37" type="passenger" depart="100.42">
        <route edges="-E4 -E2 E3"/>
    </vehicle>
    <vehicle id="veh_10" type="passenger" depart="101.49">
        <route edges="E2"/>
    </vehicle>
    <vehicle id="veh_20" type="passenger" depart="106.04">
        <route edges="-E5 E4"/>
    </vehicle>
    <vehicle id="veh_5" type="bus" depart="108.75">
        <route edges="-E5 E6"/>
    </vehicle>
    <vehicle id="veh_29" type="passenger" depart="109.37">
        <route edges="E0 E3"/>
    </vehicle>
    <vehicle id="veh_50" type="truck" depart="110.08">
        <route edges="E2"/>
    </vehicle>
    <vehicle id="veh_16" type="truck" depart="117.3">
        <route edges="E2 E4"/>
    </vehicle>
    <vehicle id="veh_42" type="bus" depart="122.78">
        <route edges="-E5 E4"/>
    </vehicle>
    <vehicle id="veh_31" type="passenger" depart="125.64">
        <route edges="-E6 -E2 E3"/>
    </vehicle>
    <vehicle id="veh_30" type="passenger" depart="129.0">
        <route edges="E0 E3"/>
    </vehicle>
    <vehicle id="veh_4" type="bus" depart="132.43">
        <route edges="-E5 -E2 E1"/>
    </vehicle>
    <vehicle id="veh_65" type="passenger" depart="140.1">
        <route edges="-E2 E1"/>
    </vehicle>
    <vehicle id="veh_77" type="passenger" depart="160.48">
        <route edges="-E5 -E2 E1"/>
    </vehicle>
    <vehicle id="veh_1" type="passenger" depart="161.35">
        <route edges="-E5 E4"/>
    </vehicle>
    <vehicle id="veh_56" type="passenger" depart="168.07">
        <route edges="-E3 E2 E6"/>
    </vehicle>
    <vehicle id="veh_73" type="bus" depart="171.25">
        <route edges="-E2 E1"/>
    </vehicle>
    <vehicle id="veh_71" type="passenger" depart="180.87">
        <route edges="-E3 E2 E6"/>
    </vehicle>
    <vehicle id="veh_80" type="passenger" depart="184.39">
        <route edges="E2 E4"/>
    </vehicle>
    <vehicle id="veh_45" type="passenger" depart="192.11">
        <route edges="E2 E6"/>
    </vehicle>
    <vehicle id="veh_6" type="passenger" depart="194.52">
        <route edges="-E4 -E2 -E0"/>
    </vehicle>
    <vehicle id="veh_74" type="motorcycle" depart="198.71">
        <route edges="E0 E2 E5"/>
    </vehicle>
    <vehicle id="veh_87" type="truck" depart="199.49">
        <route edges="-E5 E6"/>
    </vehicle>
    <vehicle id="veh_52" type="passenger" depart="203.03">
        <route edges="E0 E2 E5"/>
    </vehicle>
    <vehicle id="veh_12" type="motorcycle" depart="203.44">
        <route edges="-E4 -E2 E3"/>
    </vehicle>
    <vehicle id="veh_39" type="truck" depart="216.96">
        <route edges="E2"/>
    </vehicle>
    <vehicle id="veh_40" type="bus" depart="218.02">
        <route edges="E2"/>
    </vehicle>
    <vehicle id="veh_53" type="passenger" depart="220.88">
        <route edges="-E3 E2 E6"/>
    </vehicle>
    <vehicle id="veh_64" type="truck" depart="221.76">
        <route edges="-E3 E2 E4"/>
    </vehicle>
    <vehicle id="veh_41" type="passenger" depart="226.52">
        <route edges="-E3 E2 E4"/>
    </vehicle>
    <vehicle id="veh_17" type="passenger" depart="230.04">
        <route edges="E0 E3"/>
    </vehicle>
    <vehicle id="veh_85" type="passenger" depart="234.26">
        <route edges="-E4 -E2 -E0"/>
    </vehicle>
    <vehicle id="veh_38" type="passenger" depart="239.1">
        <route edges="E2"/>
    </vehicle>
    <vehicle id="veh_72" type="bus" depart="249.14">
        <route edges="-E4 -E2 -E0"/>
    </vehicle>
    <vehicle id="veh_62" type="passenger" depart="251.77">
        <route edges="-E5 -E2 E1"/>
    </vehicle>
    <vehicle id="veh_61" type="passenger" depart="257.09">
        <route edges="-E5 -E2 E1"/>
    </vehicle>
    <vehicle id="veh_49" type="passenger" depart="257.69">
        <route edges="-E4 -E2 -E0"/>
    </vehicle>
    <vehicle id="veh_24" type="passenger" depart="266.95">
        <route edges="E0 E2 E5"/>
    </vehicle>
    <vehicle id="veh_84" type="passenger" depart="267.28">
        <route edges="E2 E4"/>
    </vehicle>
    <vehicle id="veh_28" type="passenger" depart="271.17">
        <route edges="E0 E2 E4"/>
    </vehicle>
    <vehicle id="veh_79" type="passenger" depart="271.57">
        <route edges="-E3 E2 E4"/>
    </vehicle>
    <vehicle id="veh_36" type="passenger" depart="272.49">
        <route edges="E0 E2 E5"/>
    </vehicle>
    <vehicle id="veh_35" type="passenger" depart="284.69">
        <route edges="-E4 -E2 -E0"/>
    </vehicle>
    <vehicle id="veh_9" type="passenger" depart="285.63">
        <route edges="-E2 E1"/>
    </vehicle>
    <vehicle id="veh_63" type="passenger" depart="296.44">
        <route edges="-E5 -E2 E1"/>
    </vehicle>
    <vehicle id="veh_21" type="truck" depart="303.03">
        <route edges="E2 E5"/>
    </vehicle>
    <vehicle id="veh_25" type="truck" depart="306.55">
        <route edges="-E3 E2 E6"/>
    </vehicle>
    <vehicle id="veh_3" type="passenger" depart="317.99">
        <route edges="-E3 E2 E4"/>
    </vehicle>
    <vehicle id="veh_19" type="bus" depart="319.15">
        <route edges="E2 E4"/>
    </vehicle>
    <vehicle id="veh_47" type="motorcycle" depart="324.98">
        <route edges="E0 E2 E5"/>
    </vehicle>
    <vehicle id="veh_82" type="passenger" depart="336.67">
        <route edges="E2 E5"/>
    </vehicle>
    <vehicle id="veh_60" type="motorcycle" depart="344.3">
        <route edges="E0 E3"/>
    </vehicle>
    <vehicle id="veh_54" type="bus" depart="348.26">
        <route edges="E2 E5"/>
    </vehicle>
    <vehicle id="veh_55" type="passenger" depart="349.2">
        <route edges="-E6 E4"/>
    </vehicle>
    <vehicle id="veh_86" type="passenger" depart="359.17">
        <route edges="E0 E3"/>
    </vehicle>
    <vehicle id="veh_43" type="passenger" depart="361.96">
        <route edges="-E6 -E2 -E0"/>
    </vehicle>
    <vehicle id="veh_33" type="motorcycle" depart="362.34">
        <route edges="-E1 E2 E5"/>
    </vehicle>
    <vehicle id="veh_8" type="passenger" depart="373.52">
        <route edges="-E1 -E0"/>
    </vehicle>
    <vehicle id="veh_2" type="passenger" depart="374.3">
        <route edges="-E5 E4"/>
    </vehicle>
    <vehicle id="veh_7" type="passenger" depart="374.67">
        <route edges="-E4 -E2 -E0"/>
    </vehicle>
    <vehicle id="veh_22" type="passenger" depart="375.31">
        <route edges="-E6 E4"/>
    </vehicle>
    <vehicle id="veh_58" type="passenger" depart="379.5">
        <route edges="-E6 -E2 E3"/>
    </vehicle>
    <vehicle id="veh_75" type="motorcycle" depart="379.73">
        <route edges="-E6 -E2 E3"/>
    </vehicle>
    <vehicle id="veh_83" type="passenger" depart="380.71">
        <route edges="-E6 -E2 -E0"/>
    </vehicle>
    <vehicle id="veh_67" type="motorcycle" depart="397.73">
        <route edges="-E6 -E2 E3"/>
    </vehicle>
</routes>
