<?xml version="1.0" encoding="UTF-8"?>
<routes>
    <vType id="passenger" accel="2.6" decel="4.5" sigma="0.5" length="5.0" minGap="2.5" maxSpeed="50.0" color="1,0,0"/>
    <vType id="bus" accel="1.2" decel="4.0" sigma="0.5" length="12.0" minGap="3.0" maxSpeed="30.0" color="0,0,1"/>
    <vType id="truck" accel="1.5" decel="3.5" sigma="0.5" length="10.0" minGap="3.0" maxSpeed="40.0" color="0,1,0"/>
    <vType id="motorcycle" accel="3.0" decel="5.0" sigma="0.5" length="2.5" minGap="1.5" maxSpeed="55.0" color="1,1,0"/>
    <vehicle id="veh_77" type="passenger" depart="6.34">
        <route edges="-E5 -E2 E1"/>
    </vehicle>
    <vehicle id="veh_70" type="bus" depart="9.27">
        <route edges="-E6 -E2 -E0"/>
    </vehicle>
    <vehicle id="veh_67" type="passenger" depart="9.89">
        <route edges="-E5 -E2 E1"/>
    </vehicle>
    <vehicle id="veh_44" type="passenger" depart="10.14">
        <route edges="-E6 E4"/>
    </vehicle>
    <vehicle id="veh_51" type="bus" depart="11.5">
        <route edges="-E5 E6"/>
    </vehicle>
    <vehicle id="veh_76" type="passenger" depart="12.79">
        <route edges="-E5 E6"/>
    </vehicle>
    <vehicle id="veh_32" type="passenger" depart="15.59">
        <route edges="-E6 -E2 -E0"/>
    </vehicle>
    <vehicle id="veh_47" type="passenger" depart="20.09">
        <route edges="-E1 E2 E5"/>
    </vehicle>
    <vehicle id="veh_55" type="passenger" depart="28.79">
        <route edges="-E6 -E2 -E0"/>
    </vehicle>
    <vehicle id="veh_57" type="motorcycle" depart="31.66">
        <route edges="E2 E4"/>
    </vehicle>
    <vehicle id="veh_40" type="passenger" depart="32.83">
        <route edges="-E1 -E0"/>
    </vehicle>
    <vehicle id="veh_12" type="passenger" depart="35.18">
        <route edges="-E6 E4"/>
    </vehicle>
    <vehicle id="veh_73" type="passenger" depart="39.98">
        <route edges="-E1 E2 E5"/>
    </vehicle>
    <vehicle id="veh_15" type="truck" depart="40.83">
        <route edges="-E6 -E2 -E0"/>
    </vehicle>
    <vehicle id="veh_63" type="passenger" depart="48.66">
        <route edges="-E6 -E2 E3"/>
    </vehicle>
    <vehicle id="veh_50" type="passenger" depart="48.86">
        <route edges="-E5 E4"/>
    </vehicle>
    <vehicle id="veh_17" type="passenger" depart="54.39">
        <route edges="-E2 E3"/>
    </vehicle>
    <vehicle id="veh_6" type="passenger" depart="66.31">
        <route edges="-E1 E2 E6"/>
    </vehicle>
    <vehicle id="veh_27" type="passenger" depart="68.35">
        <route edges="-E1 E2 E6"/>
    </vehicle>
    <vehicle id="veh_9" type="passenger" depart="72.86">
        <route edges="-E6 E4"/>
    </vehicle>
    <vehicle id="veh_46" type="passenger" depart="73.2">
        <route edges="-E1 E2 E5"/>
    </vehicle>
    <vehicle id="veh_13" type="truck" depart="77.36">
        <route edges="E0 E2 E5"/>
    </vehicle>
    <vehicle id="veh_10" type="bus" depart="88.9">
        <route edges="-E6 -E2 E3"/>
    </vehicle>
    <vehicle id="veh_35" type="motorcycle" depart="89.27">
        <route edges="E2 E4"/>
    </vehicle>
    <vehicle id="veh_48" type="passenger" depart="89.53">
        <route edges="-E2 E3"/>
    </vehicle>
    <vehicle id="veh_66" type="passenger" depart="92.44">
        <route edges="-E4 -E2 E3"/>
    </vehicle>
    <vehicle id="veh_81" type="motorcycle" depart="99.16">
        <route edges="-E5 -E2 E1"/>
    </vehicle>
    <vehicle id="veh_11" type="passenger" depart="112.79">
        <route edges="-E1 E2 E5"/>
    </vehicle>
    <vehicle id="veh_45" type="passenger" depart="114.42">
        <route edges="E2"/>
    </vehicle>
    <vehicle id="veh_25" type="passenger" depart="115.67">
        <route edges="-E2 E3"/>
    </vehicle>
    <vehicle id="veh_23" type="passenger" depart="116.57">
        <route edges="-E6 E4"/>
    </vehicle>
    <vehicle id="veh_18" type="bus" depart="121.09">
        <route edges="-E3 E2 E4"/>
    </vehicle>
    <vehicle id="veh_0" type="bus" depart="132.86">
        <route edges="-E3 E2 E6"/>
    </vehicle>
    <vehicle id="veh_68" type="bus" depart="143.17">
        <route edges="-E2 E1"/>
    </vehicle>
    <vehicle id="veh_26" type="passenger" depart="145.06">
        <route edges="E0 E2 E5"/>
    </vehicle>
    <vehicle id="veh_16" type="passenger" depart="145.91">
        <route edges="E0 E2 E5"/>
    </vehicle>
    <vehicle id="veh_58" type="passenger" depart="166.69">
        <route edges="E0 E2 E5"/>
    </vehicle>
    <vehicle id="veh_20" type="passenger" depart="167.75">
        <route edges="-E5 E4"/>
    </vehicle>
    <vehicle id="veh_59" type="passenger" depart="167.96">
        <route edges="E0 E2 E4"/>
    </vehicle>
    <vehicle id="veh_14" type="truck" depart="168.85">
        <route edges="-E6 -E2 -E0"/>
    </vehicle>
    <vehicle id="veh_79" type="passenger" depart="173.64">
        <route edges="-E6 -E2 -E0"/>
    </vehicle>
    <vehicle id="veh_4" type="passenger" depart="173.7">
        <route edges="-E5 -E2 E1"/>
    </vehicle>
    <vehicle id="veh_5" type="passenger" depart="175.01">
        <route edges="-E3 E2 E4"/>
    </vehicle>
    <vehicle id="veh_54" type="passenger" depart="176.92">
        <route edges="E0 E2 E5"/>
    </vehicle>
    <vehicle id="veh_21" type="passenger" depart="184.49">
        <route edges="-E4 -E2 -E0"/>
    </vehicle>
    <vehicle id="veh_78" type="passenger" depart="189.53">
        <route edges="-E5 -E2 E1"/>
    </vehicle>
    <vehicle id="veh_30" type="motorcycle" depart="189.72">
        <route edges="-E5 -E2 E1"/>
    </vehicle>
    <vehicle id="veh_31" type="passenger" depart="193.72">
        <route edges="-E6 -E2 E3"/>
    </vehicle>
    <vehicle id="veh_8" type="truck" depart="206.17">
        <route edges="-E4 -E2 E3"/>
    </vehicle>
    <vehicle id="veh_75" type="passenger" depart="206.91">
        <route edges="-E1 -E0"/>
    </vehicle>
    <vehicle id="veh_49" type="truck" depart="213.95">
        <route edges="-E4 -E2 -E0"/>
    </vehicle>
    <vehicle id="veh_1" type="bus" depart="217.49">
        <route edges="-E5 E6"/>
    </vehicle>
    <vehicle id="veh_82" type="passenger" depart="220.51">
        <route edges="-E1 -E0"/>
    </vehicle>
    <vehicle id="veh_38" type="passenger" depart="233.48">
        <route edges="E2 E5"/>
    </vehicle>
    <vehicle id="veh_83" type="passenger" depart="237.37">
        <route edges="E0 E2 E5"/>
    </vehicle>
    <vehicle id="veh_65" type="passenger" depart="239.62">
        <route edges="-E5 E4"/>
    </vehicle>
    <vehicle id="veh_87" type="passenger" depart="240.37">
        <route edges="E0 E2 E4"/>
    </vehicle>
    <vehicle id="veh_36" type="passenger" depart="246.38">
        <route edges="-E1 E2 E6"/>
    </vehicle>
    <vehicle id="veh_60" type="truck" depart="252.74">
        <route edges="E2 E5"/>
    </vehicle>
    <vehicle id="veh_85" type="passenger" depart="252.82">
        <route edges="-E5 -E2 E1"/>
    </vehicle>
    <vehicle id="veh_64" type="passenger" depart="257.37">
        <route edges="-E3 E2 E6"/>
    </vehicle>
    <vehicle id="veh_80" type="passenger" depart="266.79">
        <route edges="-E4 -E2 E3"/>
    </vehicle>
    <vehicle id="veh_71" type="passenger" depart="269.1">
        <route edges="-E1 E2 E5"/>
    </vehicle>
    <vehicle id="veh_37" type="passenger" depart="276.77">
        <route edges="E2 E5"/>
    </vehicle>
    <vehicle id="veh_43" type="passenger" depart="285.77">
        <route edges="E2 E4"/>
    </vehicle>
    <vehicle id="veh_74" type="passenger" depart="288.03">
        <route edges="-E2 E1"/>
    </vehicle>
    <vehicle id="veh_7" type="passenger" depart="290.88">
        <route edges="E0 E3"/>
    </vehicle>
    <vehicle id="veh_52" type="passenger" depart="291.88">
        <route edges="E0 E2 E5"/>
    </vehicle>
    <vehicle id="veh_42" type="passenger" depart="296.92">
        <route edges="-E6 E4"/>
    </vehicle>
    <vehicle id="veh_34" type="passenger" depart="313.58">
        <route edges="E0 E2 E4"/>
    </vehicle>
    <vehicle id="veh_19" type="passenger" depart="320.42">
        <route edges="-E3 E2 E6"/>
    </vehicle>
    <vehicle id="veh_28" type="passenger" depart="320.71">
        <route edges="-E2 E1"/>
    </vehicle>
    <vehicle id="veh_39" type="passenger" depart="325.2">
        <route edges="-E4 -E2 E3"/>
    </vehicle>
    <vehicle id="veh_69" type="passenger" depart="332.86">
        <route edges="-E5 E6"/>
    </vehicle>
    <vehicle id="veh_53" type="passenger" depart="339.2">
        <route edges="E2"/>
    </vehicle>
    <vehicle id="veh_86" type="passenger" depart="342.24">
        <route edges="-E5 -E2 E1"/>
    </vehicle>
    <vehicle id="veh_2" type="bus" depart="354.72">
        <route edges="E0 E2 E5"/>
    </vehicle>
    <vehicle id="veh_22" type="passenger" depart="359.2">
        <route edges="-E2 E1"/>
    </vehicle>
    <vehicle id="veh_84" type="passenger" depart="363.79">
        <route edges="E0 E2 E5"/>
    </vehicle>
    <vehicle id="veh_3" type="passenger" depart="363.96">
        <route edges="E2 E4"/>
    </vehicle>
    <vehicle id="veh_62" type="passenger" depart="367.4">
        <route edges="-E2 E3"/>
    </vehicle>
    <vehicle id="veh_61" type="passenger" depart="368.04">
        <route edges="-E1 -E0"/>
    </vehicle>
    <vehicle id="veh_41" type="passenger" depart="380.49">
        <route edges="-E1 E2 E6"/>
    </vehicle>
    <vehicle id="veh_29" type="passenger" depart="382.66">
        <route edges="E2"/>
    </vehicle>
    <vehicle id="veh_72" type="passenger" depart="386.06">
        <route edges="E0 E3"/>
    </vehicle>
    <vehicle id="veh_56" type="truck" depart="386.48">
        <route edges="-E5 -E2 E1"/>
    </vehicle>
    <vehicle id="veh_33" type="passenger" depart="393.21">
        <route edges="-E5 E6"/>
    </vehicle>
    <vehicle id="veh_24" type="passenger" depart="396.15">
        <route edges="-E5 E6"/>
    </vehicle>
</routes>
