<?xml version="1.0" encoding="UTF-8"?>
<routes>
    <vType id="passenger" accel="2.6" decel="4.5" sigma="0.5" length="5.0" minGap="2.5" maxSpeed="50.0" color="1,0,0"/>
    <vType id="bus" accel="1.2" decel="4.0" sigma="0.5" length="12.0" minGap="3.0" maxSpeed="30.0" color="0,0,1"/>
    <vType id="truck" accel="1.5" decel="3.5" sigma="0.5" length="10.0" minGap="3.0" maxSpeed="40.0" color="0,1,0"/>
    <vType id="motorcycle" accel="3.0" decel="5.0" sigma="0.5" length="2.5" minGap="1.5" maxSpeed="55.0" color="1,1,0"/>
    <vehicle id="veh_78" type="passenger" depart="1.44">
        <route edges="-E4 -E2 E3"/>
    </vehicle>
    <vehicle id="veh_69" type="passenger" depart="5.39">
        <route edges="E2 E6"/>
    </vehicle>
    <vehicle id="veh_54" type="bus" depart="5.86">
        <route edges="-E1 -E0"/>
    </vehicle>
    <vehicle id="veh_5" type="motorcycle" depart="14.04">
        <route edges="-E2 E3"/>
    </vehicle>
    <vehicle id="veh_16" type="truck" depart="14.7">
        <route edges="-E1 E2 E5"/>
    </vehicle>
    <vehicle id="veh_3" type="passenger" depart="18.2">
        <route edges="-E4 -E2 E3"/>
    </vehicle>
    <vehicle id="veh_37" type="truck" depart="22.05">
        <route edges="E2 E6"/>
    </vehicle>
    <vehicle id="veh_10" type="bus" depart="27.3">
        <route edges="-E3 E2 E6"/>
    </vehicle>
    <vehicle id="veh_21" type="passenger" depart="28.32">
        <route edges="-E1 E2 E5"/>
    </vehicle>
    <vehicle id="veh_7" type="motorcycle" depart="28.71">
        <route edges="E0 E3"/>
    </vehicle>
    <vehicle id="veh_14" type="motorcycle" depart="34.28">
        <route edges="-E3 E2 E4"/>
    </vehicle>
    <vehicle id="veh_75" type="passenger" depart="34.8">
        <route edges="-E1 E2 E5"/>
    </vehicle>
    <vehicle id="veh_86" type="passenger" depart="43.77">
        <route edges="E0 E3"/>
    </vehicle>
    <vehicle id="veh_38" type="passenger" depart="44.47">
        <route edges="-E4 -E2 E3"/>
    </vehicle>
    <vehicle id="veh_57" type="passenger" depart="48.03">
        <route edges="-E1 -E0"/>
    </vehicle>
    <vehicle id="veh_25" type="passenger" depart="50.49">
        <route edges="-E6 -E2 E3"/>
    </vehicle>
    <vehicle id="veh_64" type="bus" depart="50.99">
        <route edges="-E1 E2 E6"/>
    </vehicle>
    <vehicle id="veh_47" type="passenger" depart="58.55">
        <route edges="-E3 E2 E4"/>
    </vehicle>
    <vehicle id="veh_48" type="passenger" depart="62.55">
        <route edges="-E3 E2 E6"/>
    </vehicle>
    <vehicle id="veh_49" type="truck" depart="68.73">
        <route edges="-E5 E4"/>
    </vehicle>
    <vehicle id="veh_4" type="passenger" depart="68.99">
        <route edges="E2 E5"/>
    </vehicle>
    <vehicle id="veh_59" type="passenger" depart="83.89">
        <route edges="-E1 -E0"/>
    </vehicle>
    <vehicle id="veh_56" type="passenger" depart="90.13">
        <route edges="-E3 E2 E4"/>
    </vehicle>
    <vehicle id="veh_31" type="passenger" depart="109.94">
        <route edges="-E5 E6"/>
    </vehicle>
    <vehicle id="veh_1" type="passenger" depart="113.82">
        <route edges="-E2 E3"/>
    </vehicle>
    <vehicle id="veh_41" type="passenger" depart="114.19">
        <route edges="-E3 E2 E6"/>
    </vehicle>
    <vehicle id="veh_46" type="passenger" depart="116.33">
        <route edges="-E6 -E2 -E0"/>
    </vehicle>
    <vehicle id="veh_53" type="bus" depart="122.11">
        <route edges="-E1 -E0"/>
    </vehicle>
    <vehicle id="veh_83" type="bus" depart="131.85">
        <route edges="E0 E3"/>
    </vehicle>
    <vehicle id="veh_20" type="passenger" depart="135.22">
        <route edges="-E5 -E2 E1"/>
    </vehicle>
    <vehicle id="veh_85" type="passenger" depart="136.84">
        <route edges="-E1 E2 E6"/>
    </vehicle>
    <vehicle id="veh_15" type="passenger" depart="137.7">
        <route edges="E0 E2 E4"/>
    </vehicle>
    <vehicle id="veh_35" type="passenger" depart="138.02">
        <route edges="E0 E2 E5"/>
    </vehicle>
    <vehicle id="veh_0" type="passenger" depart="146.88">
        <route edges="-E6 -E2 -E0"/>
    </vehicle>
    <vehicle id="veh_24" type="passenger" depart="149.16">
        <route edges="-E5 E6"/>
    </vehicle>
    <vehicle id="veh_19" type="truck" depart="153.06">
        <route edges="-E3 E2 E4"/>
    </vehicle>
    <vehicle id="veh_58" type="passenger" depart="153.91">
        <route edges="E2"/>
    </vehicle>
    <vehicle id="veh_60" type="passenger" depart="155.72">
        <route edges="-E3 E2 E4"/>
    </vehicle>
    <vehicle id="veh_17" type="passenger" depart="162.77">
        <route edges="-E6 E4"/>
    </vehicle>
    <vehicle id="veh_66" type="passenger" depart="163.39">
        <route edges="-E4 -E2 -E0"/>
    </vehicle>
    <vehicle id="veh_67" type="passenger" depart="166.71">
        <route edges="-E3 E2 E6"/>
    </vehicle>
    <vehicle id="veh_42" type="passenger" depart="173.96">
        <route edges="-E6 -E2 -E0"/>
    </vehicle>
    <vehicle id="veh_36" type="passenger" depart="174.0">
        <route edges="-E5 E6"/>
    </vehicle>
    <vehicle id="veh_76" type="passenger" depart="180.21">
        <route edges="-E2 E1"/>
    </vehicle>
    <vehicle id="veh_28" type="passenger" depart="184.09">
        <route edges="-E6 -E2 E3"/>
    </vehicle>
    <vehicle id="veh_52" type="passenger" depart="188.26">
        <route edges="-E6 E4"/>
    </vehicle>
    <vehicle id="veh_13" type="passenger" depart="191.31">
        <route edges="-E1 -E0"/>
    </vehicle>
    <vehicle id="veh_87" type="passenger" depart="198.15">
        <route edges="E2 E6"/>
    </vehicle>
    <vehicle id="veh_70" type="passenger" depart="199.19">
        <route edges="-E1 -E0"/>
    </vehicle>
    <vehicle id="veh_23" type="bus" depart="204.04">
        <route edges="-E1 E2 E6"/>
    </vehicle>
    <vehicle id="veh_40" type="passenger" depart="207.0">
        <route edges="-E2 E1"/>
    </vehicle>
    <vehicle id="veh_6" type="passenger" depart="208.56">
        <route edges="E0 E3"/>
    </vehicle>
    <vehicle id="veh_73" type="passenger" depart="212.54">
        <route edges="-E6 E4"/>
    </vehicle>
    <vehicle id="veh_79" type="passenger" depart="213.8">
        <route edges="E2 E5"/>
    </vehicle>
    <vehicle id="veh_51" type="bus" depart="215.22">
        <route edges="-E6 E4"/>
    </vehicle>
    <vehicle id="veh_9" type="passenger" depart="222.13">
        <route edges="-E4 -E2 -E0"/>
    </vehicle>
    <vehicle id="veh_55" type="truck" depart="232.05">
        <route edges="-E6 -E2 -E0"/>
    </vehicle>
    <vehicle id="veh_74" type="truck" depart="241.43">
        <route edges="-E2 E3"/>
    </vehicle>
    <vehicle id="veh_2" type="truck" depart="247.51">
        <route edges="-E1 -E0"/>
    </vehicle>
    <vehicle id="veh_63" type="passenger" depart="250.47">
        <route edges="E0 E3"/>
    </vehicle>
    <vehicle id="veh_44" type="passenger" depart="259.92">
        <route edges="-E2 E3"/>
    </vehicle>
    <vehicle id="veh_29" type="passenger" depart="266.63">
        <route edges="E2 E5"/>
    </vehicle>
    <vehicle id="veh_45" type="passenger" depart="271.71">
        <route edges="E0 E2 E5"/>
    </vehicle>
    <vehicle id="veh_11" type="passenger" depart="282.52">
        <route edges="E0 E3"/>
    </vehicle>
    <vehicle id="veh_80" type="passenger" depart="285.29">
        <route edges="E2 E6"/>
    </vehicle>
    <vehicle id="veh_22" type="passenger" depart="303.06">
        <route edges="-E5 E6"/>
    </vehicle>
    <vehicle id="veh_71" type="passenger" depart="306.36">
        <route edges="E2 E5"/>
    </vehicle>
    <vehicle id="veh_72" type="motorcycle" depart="312.39">
        <route edges="-E6 -E2 E3"/>
    </vehicle>
    <vehicle id="veh_65" type="passenger" depart="312.55">
        <route edges="-E4 -E2 E3"/>
    </vehicle>
    <vehicle id="veh_62" type="passenger" depart="317.55">
        <route edges="E2 E5"/>
    </vehicle>
    <vehicle id="veh_43" type="passenger" depart="322.65">
        <route edges="-E6 E4"/>
    </vehicle>
    <vehicle id="veh_30" type="truck" depart="330.18">
        <route edges="-E3 E2 E6"/>
    </vehicle>
    <vehicle id="veh_39" type="passenger" depart="332.08">
        <route edges="-E6 E4"/>
    </vehicle>
    <vehicle id="veh_18" type="motorcycle" depart="335.67">
        <route edges="-E6 -E2 E3"/>
    </vehicle>
    <vehicle id="veh_61" type="passenger" depart="339.95">
        <route edges="E0 E2 E5"/>
    </vehicle>
    <vehicle id="veh_82" type="passenger" depart="347.29">
        <route edges="-E5 -E2 E1"/>
    </vehicle>
    <vehicle id="veh_81" type="passenger" depart="347.3">
        <route edges="-E4 -E2 -E0"/>
    </vehicle>
    <vehicle id="veh_50" type="truck" depart="347.99">
        <route edges="E2 E6"/>
    </vehicle>
    <vehicle id="veh_34" type="passenger" depart="352.01">
        <route edges="E2"/>
    </vehicle>
    <vehicle id="veh_26" type="passenger" depart="361.38">
        <route edges="-E1 E2 E5"/>
    </vehicle>
    <vehicle id="veh_12" type="passenger" depart="366.05">
        <route edges="E2 E5"/>
    </vehicle>
    <vehicle id="veh_84" type="passenger" depart="370.68">
        <route edges="E0 E2 E5"/>
    </vehicle>
    <vehicle id="veh_33" type="motorcycle" depart="370.79">
        <route edges="-E3 E2 E6"/>
    </vehicle>
    <vehicle id="veh_77" type="passenger" depart="381.05">
        <route edges="-E3 E2 E6"/>
    </vehicle>
    <vehicle id="veh_8" type="passenger" depart="386.76">
        <route edges="E0 E2 E4"/>
    </vehicle>
    <vehicle id="veh_68" type="bus" depart="389.46">
        <route edges="E2"/>
    </vehicle>
    <vehicle id="veh_32" type="passenger" depart="392.14">
        <route edges="-E5 E6"/>
    </vehicle>
    <vehicle id="veh_27" type="truck" depart="397.09">
        <route edges="-E6 E4"/>
    </vehicle>
</routes>
