<?xml version="1.0" encoding="UTF-8"?>
<routes>
    <vType id="passenger" accel="2.6" decel="4.5" sigma="0.5" length="5.0" minGap="2.5" maxSpeed="50.0" color="1,0,0"/>
    <vType id="bus" accel="1.2" decel="4.0" sigma="0.5" length="12.0" minGap="3.0" maxSpeed="30.0" color="0,0,1"/>
    <vType id="truck" accel="1.5" decel="3.5" sigma="0.5" length="10.0" minGap="3.0" maxSpeed="40.0" color="0,1,0"/>
    <vType id="motorcycle" accel="3.0" decel="5.0" sigma="0.5" length="2.5" minGap="1.5" maxSpeed="55.0" color="1,1,0"/>
    <vehicle id="veh_53" type="passenger" depart="2.05">
        <route edges="-E2 E3"/>
    </vehicle>
    <vehicle id="veh_11" type="passenger" depart="3.56">
        <route edges="-E6 E4"/>
    </vehicle>
    <vehicle id="veh_74" type="passenger" depart="10.43">
        <route edges="-E6 -E2 E3"/>
    </vehicle>
    <vehicle id="veh_71" type="bus" depart="16.82">
        <route edges="E2 E6"/>
    </vehicle>
    <vehicle id="veh_16" type="passenger" depart="19.25">
        <route edges="E2 E6"/>
    </vehicle>
    <vehicle id="veh_19" type="motorcycle" depart="19.45">
        <route edges="-E3 E2 E6"/>
    </vehicle>
    <vehicle id="veh_1" type="passenger" depart="21.54">
        <route edges="-E3 E2 E6"/>
    </vehicle>
    <vehicle id="veh_6" type="passenger" depart="40.48">
        <route edges="-E1 E2 E6"/>
    </vehicle>
    <vehicle id="veh_81" type="passenger" depart="47.97">
        <route edges="-E4 -E2 -E0"/>
    </vehicle>
    <vehicle id="veh_24" type="passenger" depart="48.45">
        <route edges="-E4 -E2 E3"/>
    </vehicle>
    <vehicle id="veh_50" type="motorcycle" depart="50.58">
        <route edges="-E6 -E2 E3"/>
    </vehicle>
    <vehicle id="veh_10" type="passenger" depart="54.77">
        <route edges="-E3 E2 E4"/>
    </vehicle>
    <vehicle id="veh_84" type="passenger" depart="57.0">
        <route edges="-E1 -E0"/>
    </vehicle>
    <vehicle id="veh_61" type="passenger" depart="66.97">
        <route edges="-E1 -E0"/>
    </vehicle>
    <vehicle id="veh_65" type="passenger" depart="67.55">
        <route edges="-E3 E2 E6"/>
    </vehicle>
    <vehicle id="veh_0" type="passenger" depart="85.46">
        <route edges="E0 E2 E5"/>
    </vehicle>
    <vehicle id="veh_45" type="passenger" depart="90.8">
        <route edges="-E3 E2 E6"/>
    </vehicle>
    <vehicle id="veh_30" type="passenger" depart="90.86">
        <route edges="E0 E2 E5"/>
    </vehicle>
    <vehicle id="veh_70" type="passenger" depart="91.44">
        <route edges="-E4 -E2 E3"/>
    </vehicle>
    <vehicle id="veh_64" type="passenger" depart="91.63">
        <route edges="-E1 E2 E6"/>
    </vehicle>
    <vehicle id="veh_82" type="bus" depart="97.05">
        <route edges="-E6 -E2 -E0"/>
    </vehicle>
    <vehicle id="veh_4" type="bus" depart="105.05">
        <route edges="-E4 -E2 -E0"/>
    </vehicle>
    <vehicle id="veh_9" type="passenger" depart="106.95">
        <route edges="-E6 E4"/>
    </vehicle>
    <vehicle id="veh_27" type="passenger" depart="107.67">
        <route edges="-E2 E3"/>
    </vehicle>
    <vehicle id="veh_41" type="bus" depart="110.4">
        <route edges="E0 E2 E5"/>
    </vehicle>
    <vehicle id="veh_21" type="bus" depart="110.95">
        <route edges="E0 E2 E5"/>
    </vehicle>
    <vehicle id="veh_42" type="passenger" depart="125.72">
        <route edges="-E1 E2 E5"/>
    </vehicle>
    <vehicle id="veh_86" type="truck" depart="126.57">
        <route edges="E2 E4"/>
    </vehicle>
    <vehicle id="veh_69" type="passenger" depart="135.66">
        <route edges="E2"/>
    </vehicle>
    <vehicle id="veh_36" type="passenger" depart="142.08">
        <route edges="E2 E5"/>
    </vehicle>
    <vehicle id="veh_2" type="passenger" depart="146.36">
        <route edges="-E4 -E2 -E0"/>
    </vehicle>
    <vehicle id="veh_13" type="passenger" depart="149.54">
        <route edges="E0 E2 E4"/>
    </vehicle>
    <vehicle id="veh_56" type="passenger" depart="154.81">
        <route edges="E2 E4"/>
    </vehicle>
    <vehicle id="veh_87" type="bus" depart="155.49">
        <route edges="-E2 E1"/>
    </vehicle>
    <vehicle id="veh_14" type="passenger" depart="156.27">
        <route edges="-E1 -E0"/>
    </vehicle>
    <vehicle id="veh_29" type="passenger" depart="156.83">
        <route edges="-E6 E4"/>
    </vehicle>
    <vehicle id="veh_73" type="passenger" depart="158.03">
        <route edges="E2 E6"/>
    </vehicle>
    <vehicle id="veh_75" type="passenger" depart="174.47">
        <route edges="-E4 -E2 E3"/>
    </vehicle>
    <vehicle id="veh_26" type="passenger" depart="197.59">
        <route edges="E2"/>
    </vehicle>
    <vehicle id="veh_43" type="passenger" depart="197.77">
        <route edges="-E3 E2 E4"/>
    </vehicle>
    <vehicle id="veh_72" type="passenger" depart="203.52">
        <route edges="-E3 E2 E6"/>
    </vehicle>
    <vehicle id="veh_8" type="motorcycle" depart="211.55">
        <route edges="E2"/>
    </vehicle>
    <vehicle id="veh_20" type="bus" depart="222.65">
        <route edges="E0 E3"/>
    </vehicle>
    <vehicle id="veh_62" type="passenger" depart="229.1">
        <route edges="-E6 -E2 -E0"/>
    </vehicle>
    <vehicle id="veh_79" type="passenger" depart="229.74">
        <route edges="-E5 E6"/>
    </vehicle>
    <vehicle id="veh_15" type="truck" depart="232.31">
        <route edges="-E2 E1"/>
    </vehicle>
    <vehicle id="veh_54" type="passenger" depart="236.26">
        <route edges="-E3 E2 E6"/>
    </vehicle>
    <vehicle id="veh_49" type="passenger" depart="240.6">
        <route edges="-E1 E2 E6"/>
    </vehicle>
    <vehicle id="veh_66" type="passenger" depart="243.31">
        <route edges="-E3 E2 E6"/>
    </vehicle>
    <vehicle id="veh_83" type="passenger" depart="244.68">
        <route edges="-E4 -E2 E3"/>
    </vehicle>
    <vehicle id="veh_58" type="passenger" depart="249.61">
        <route edges="-E6 E4"/>
    </vehicle>
    <vehicle id="veh_22" type="passenger" depart="250.28">
        <route edges="E2 E5"/>
    </vehicle>
    <vehicle id="veh_67" type="motorcycle" depart="261.49">
        <route edges="-E6 E4"/>
    </vehicle>
    <vehicle id="veh_44" type="passenger" depart="265.58">
        <route edges="E0 E2 E4"/>
    </vehicle>
    <vehicle id="veh_57" type="passenger" depart="269.18">
        <route edges="-E2 E1"/>
    </vehicle>
    <vehicle id="veh_85" type="passenger" depart="273.81">
        <route edges="E2 E4"/>
    </vehicle>
    <vehicle id="veh_17" type="passenger" depart="278.27">
        <route edges="-E5 E6"/>
    </vehicle>
    <vehicle id="veh_23" type="truck" depart="280.44">
        <route edges="-E4 -E2 -E0"/>
    </vehicle>
    <vehicle id="veh_38" type="motorcycle" depart="281.06">
        <route edges="E2 E5"/>
    </vehicle>
    <vehicle id="veh_25" type="passenger" depart="283.18">
        <route edges="-E1 -E0"/>
    </vehicle>
    <vehicle id="veh_68" type="bus" depart="283.5">
        <route edges="-E6 -E2 E3"/>
    </vehicle>
    <vehicle id="veh_78" type="passenger" depart="287.69">
        <route edges="-E3 E2 E4"/>
    </vehicle>
    <vehicle id="veh_28" type="passenger" depart="297.15">
        <route edges="E0 E2 E5"/>
    </vehicle>
    <vehicle id="veh_39" type="passenger" depart="297.27">
        <route edges="-E3 E2 E4"/>
    </vehicle>
    <vehicle id="veh_32" type="bus" depart="304.3">
        <route edges="E2"/>
    </vehicle>
    <vehicle id="veh_7" type="truck" depart="304.37">
        <route edges="E2 E4"/>
    </vehicle>
    <vehicle id="veh_51" type="truck" depart="304.44">
        <route edges="-E4 -E2 E3"/>
    </vehicle>
    <vehicle id="veh_76" type="passenger" depart="305.53">
        <route edges="-E6 -E2 -E0"/>
    </vehicle>
    <vehicle id="veh_55" type="motorcycle" depart="308.02">
        <route edges="E2 E4"/>
    </vehicle>
    <vehicle id="veh_35" type="passenger" depart="309.34">
        <route edges="-E1 E2 E5"/>
    </vehicle>
    <vehicle id="veh_37" type="passenger" depart="314.89">
        <route edges="-E6 -E2 E3"/>
    </vehicle>
    <vehicle id="veh_40" type="passenger" depart="316.38">
        <route edges="E2 E6"/>
    </vehicle>
    <vehicle id="veh_34" type="bus" depart="320.34">
        <route edges="-E5 E4"/>
    </vehicle>
    <vehicle id="veh_80" type="truck" depart="320.58">
        <route edges="-E1 E2 E6"/>
    </vehicle>
    <vehicle id="veh_12" type="passenger" depart="325.73">
        <route edges="-E3 E2 E6"/>
    </vehicle>
    <vehicle id="veh_33" type="passenger" depart="327.4">
        <route edges="E2 E4"/>
    </vehicle>
    <vehicle id="veh_47" type="passenger" depart="328.48">
        <route edges="E0 E3"/>
    </vehicle>
    <vehicle id="veh_48" type="passenger" depart="332.36">
        <route edges="-E1 E2 E6"/>
    </vehicle>
    <vehicle id="veh_46" type="bus" depart="334.22">
        <route edges="-E4 -E2 -E0"/>
    </vehicle>
    <vehicle id="veh_3" type="passenger" depart="335.52">
        <route edges="-E3 E2 E6"/>
    </vehicle>
    <vehicle id="veh_31" type="passenger" depart="345.43">
        <route edges="-E5 -E2 E1"/>
    </vehicle>
    <vehicle id="veh_77" type="passenger" depart="345.62">
        <route edges="E0 E2 E4"/>
    </vehicle>
    <vehicle id="veh_59" type="passenger" depart="349.93">
        <route edges="E0 E2 E5"/>
    </vehicle>
    <vehicle id="veh_5" type="passenger" depart="353.56">
        <route edges="-E5 E4"/>
    </vehicle>
    <vehicle id="veh_18" type="passenger" depart="360.87">
        <route edges="-E3 E2 E4"/>
    </vehicle>
    <vehicle id="veh_63" type="passenger" depart="387.27">
        <route edges="-E2 E3"/>
    </vehicle>
    <vehicle id="veh_60" type="passenger" depart="387.59">
        <route edges="-E1 -E0"/>
    </vehicle>
    <vehicle id="veh_52" type="passenger" depart="397.91">
        <route edges="E0 E3"/>
    </vehicle>
</routes>
