<?xml version="1.0" encoding="UTF-8"?>
<routes>
    <vType id="passenger" accel="2.6" decel="4.5" sigma="0.5" length="5.0" minGap="2.5" maxSpeed="50.0" color="1,0,0"/>
    <vType id="bus" accel="1.2" decel="4.0" sigma="0.5" length="12.0" minGap="3.0" maxSpeed="30.0" color="0,0,1"/>
    <vType id="truck" accel="1.5" decel="3.5" sigma="0.5" length="10.0" minGap="3.0" maxSpeed="40.0" color="0,1,0"/>
    <vType id="motorcycle" accel="3.0" decel="5.0" sigma="0.5" length="2.5" minGap="1.5" maxSpeed="55.0" color="1,1,0"/>
    <vehicle id="veh_38" type="bus" depart="0.26">
        <route edges="-E3 E2 E4"/>
    </vehicle>
    <vehicle id="veh_42" type="passenger" depart="1.87">
        <route edges="-E5 E6"/>
    </vehicle>
    <vehicle id="veh_27" type="bus" depart="3.71">
        <route edges="-E4 -E2 -E0"/>
    </vehicle>
    <vehicle id="veh_41" type="passenger" depart="4.55">
        <route edges="-E5 -E2 E1"/>
    </vehicle>
    <vehicle id="veh_80" type="motorcycle" depart="11.85">
        <route edges="-E6 -E2 -E0"/>
    </vehicle>
    <vehicle id="veh_47" type="passenger" depart="11.93">
        <route edges="-E3 E2 E4"/>
    </vehicle>
    <vehicle id="veh_0" type="passenger" depart="18.18">
        <route edges="-E2 E3"/>
    </vehicle>
    <vehicle id="veh_37" type="passenger" depart="20.79">
        <route edges="E2"/>
    </vehicle>
    <vehicle id="veh_18" type="passenger" depart="22.13">
        <route edges="-E1 E2 E6"/>
    </vehicle>
    <vehicle id="veh_54" type="passenger" depart="26.3">
        <route edges="-E3 E2 E6"/>
    </vehicle>
    <vehicle id="veh_10" type="passenger" depart="27.96">
        <route edges="-E3 E2 E6"/>
    </vehicle>
    <vehicle id="veh_34" type="passenger" depart="33.75">
        <route edges="-E5 -E2 E1"/>
    </vehicle>
    <vehicle id="veh_85" type="bus" depart="37.99">
        <route edges="-E4 -E2 E3"/>
    </vehicle>
    <vehicle id="veh_70" type="passenger" depart="40.16">
        <route edges="-E1 -E0"/>
    </vehicle>
    <vehicle id="veh_74" type="passenger" depart="42.56">
        <route edges="-E4 -E2 E3"/>
    </vehicle>
    <vehicle id="veh_4" type="passenger" depart="46.7">
        <route edges="-E2 E3"/>
    </vehicle>
    <vehicle id="veh_58" type="passenger" depart="58.24">
        <route edges="E2 E4"/>
    </vehicle>
    <vehicle id="veh_16" type="passenger" depart="59.76">
        <route edges="E0 E2 E4"/>
    </vehicle>
    <vehicle id="veh_50" type="bus" depart="70.62">
        <route edges="-E2 E1"/>
    </vehicle>
    <vehicle id="veh_28" type="motorcycle" depart="74.88">
        <route edges="-E6 -E2 -E0"/>
    </vehicle>
    <vehicle id="veh_43" type="passenger" depart="75.41">
        <route edges="-E3 E2 E4"/>
    </vehicle>
    <vehicle id="veh_82" type="truck" depart="75.73">
        <route edges="-E6 -E2 E3"/>
    </vehicle>
    <vehicle id="veh_35" type="passenger" depart="81.97">
        <route edges="-E4 -E2 -E0"/>
    </vehicle>
    <vehicle id="veh_55" type="truck" depart="86.93">
        <route edges="-E1 E2 E6"/>
    </vehicle>
    <vehicle id="veh_62" type="passenger" depart="91.29">
        <route edges="-E5 E4"/>
    </vehicle>
    <vehicle id="veh_7" type="passenger" depart="91.5">
        <route edges="-E5 -E2 E1"/>
    </vehicle>
    <vehicle id="veh_76" type="passenger" depart="100.86">
        <route edges="E0 E3"/>
    </vehicle>
    <vehicle id="veh_19" type="passenger" depart="105.74">
        <route edges="E2 E6"/>
    </vehicle>
    <vehicle id="veh_8" type="passenger" depart="116.34">
        <route edges="E0 E2 E4"/>
    </vehicle>
    <vehicle id="veh_15" type="passenger" depart="117.74">
        <route edges="-E6 -E2 -E0"/>
    </vehicle>
    <vehicle id="veh_81" type="passenger" depart="128.02">
        <route edges="-E4 -E2 E3"/>
    </vehicle>
    <vehicle id="veh_11" type="passenger" depart="130.86">
        <route edges="-E5 -E2 E1"/>
    </vehicle>
    <vehicle id="veh_1" type="passenger" depart="132.83">
        <route edges="E2"/>
    </vehicle>
    <vehicle id="veh_22" type="truck" depart="133.81">
        <route edges="-E3 E2 E6"/>
    </vehicle>
    <vehicle id="veh_2" type="passenger" depart="135.91">
        <route edges="-E1 -E0"/>
    </vehicle>
    <vehicle id="veh_39" type="passenger" depart="136.9">
        <route edges="E2"/>
    </vehicle>
    <vehicle id="veh_13" type="passenger" depart="137.5">
        <route edges="-E1 -E0"/>
    </vehicle>
    <vehicle id="veh_63" type="passenger" depart="139.31">
        <route edges="-E1 E2 E5"/>
    </vehicle>
    <vehicle id="veh_40" type="truck" depart="141.93">
        <route edges="E0 E3"/>
    </vehicle>
    <vehicle id="veh_59" type="passenger" depart="144.2">
        <route edges="-E5 -E2 E1"/>
    </vehicle>
    <vehicle id="veh_3" type="passenger" depart="145.03">
        <route edges="-E1 E2 E6"/>
    </vehicle>
    <vehicle id="veh_5" type="bus" depart="145.52">
        <route edges="E2 E4"/>
    </vehicle>
    <vehicle id="veh_60" type="passenger" depart="150.77">
        <route edges="-E6 -E2 E3"/>
    </vehicle>
    <vehicle id="veh_9" type="passenger" depart="164.92">
        <route edges="E2 E6"/>
    </vehicle>
    <vehicle id="veh_36" type="bus" depart="174.78">
        <route edges="-E5 E6"/>
    </vehicle>
    <vehicle id="veh_32" type="passenger" depart="178.17">
        <route edges="-E1 E2 E5"/>
    </vehicle>
    <vehicle id="veh_6" type="passenger" depart="194.18">
        <route edges="E0 E3"/>
    </vehicle>
    <vehicle id="veh_66" type="passenger" depart="199.74">
        <route edges="-E4 -E2 -E0"/>
    </vehicle>
    <vehicle id="veh_29" type="passenger" depart="201.03">
        <route edges="E0 E2 E4"/>
    </vehicle>
    <vehicle id="veh_73" type="motorcycle" depart="205.45">
        <route edges="-E6 -E2 E3"/>
    </vehicle>
    <vehicle id="veh_86" type="bus" depart="209.01">
        <route edges="-E2 E1"/>
    </vehicle>
    <vehicle id="veh_83" type="motorcycle" depart="209.31">
        <route edges="-E4 -E2 -E0"/>
    </vehicle>
    <vehicle id="veh_17" type="motorcycle" depart="213.17">
        <route edges="E0 E2 E5"/>
    </vehicle>
    <vehicle id="veh_12" type="motorcycle" depart="218.51">
        <route edges="-E4 -E2 E3"/>
    </vehicle>
    <vehicle id="veh_26" type="passenger" depart="241.34">
        <route edges="-E2 E3"/>
    </vehicle>
    <vehicle id="veh_20" type="passenger" depart="241.57">
        <route edges="-E5 E4"/>
    </vehicle>
    <vehicle id="veh_25" type="passenger" depart="249.62">
        <route edges="E2 E4"/>
    </vehicle>
    <vehicle id="veh_23" type="motorcycle" depart="251.16">
        <route edges="E2"/>
    </vehicle>
    <vehicle id="veh_79" type="passenger" depart="262.95">
        <route edges="-E1 E2 E5"/>
    </vehicle>
    <vehicle id="veh_72" type="passenger" depart="266.56">
        <route edges="E2 E5"/>
    </vehicle>
    <vehicle id="veh_30" type="passenger" depart="275.14">
        <route edges="E0 E3"/>
    </vehicle>
    <vehicle id="veh_69" type="motorcycle" depart="278.46">
        <route edges="-E1 E2 E5"/>
    </vehicle>
    <vehicle id="veh_78" type="passenger" depart="280.03">
        <route edges="E2 E6"/>
    </vehicle>
    <vehicle id="veh_31" type="passenger" depart="283.6">
        <route edges="-E5 -E2 E1"/>
    </vehicle>
    <vehicle id="veh_49" type="passenger" depart="286.24">
        <route edges="E0 E3"/>
    </vehicle>
    <vehicle id="veh_67" type="passenger" depart="295.95">
        <route edges="-E2 E3"/>
    </vehicle>
    <vehicle id="veh_21" type="motorcycle" depart="297.89">
        <route edges="-E3 E2 E4"/>
    </vehicle>
    <vehicle id="veh_77" type="motorcycle" depart="298.55">
        <route edges="-E6 -E2 E3"/>
    </vehicle>
    <vehicle id="veh_84" type="passenger" depart="305.32">
        <route edges="-E1 E2 E6"/>
    </vehicle>
    <vehicle id="veh_44" type="passenger" depart="306.38">
        <route edges="-E1 E2 E5"/>
    </vehicle>
    <vehicle id="veh_14" type="passenger" depart="308.01">
        <route edges="-E5 E4"/>
    </vehicle>
    <vehicle id="veh_24" type="motorcycle" depart="308.77">
        <route edges="-E2 E3"/>
    </vehicle>
    <vehicle id="veh_45" type="passenger" depart="312.58">
        <route edges="-E2 E3"/>
    </vehicle>
    <vehicle id="veh_61" type="motorcycle" depart="312.84">
        <route edges="-E5 -E2 E1"/>
    </vehicle>
    <vehicle id="veh_56" type="motorcycle" depart="322.77">
        <route edges="E0 E3"/>
    </vehicle>
    <vehicle id="veh_46" type="passenger" depart="324.37">
        <route edges="-E4 -E2 E3"/>
    </vehicle>
    <vehicle id="veh_64" type="passenger" depart="340.21">
        <route edges="E0 E2 E5"/>
    </vehicle>
    <vehicle id="veh_57" type="passenger" depart="347.08">
        <route edges="-E6 E4"/>
    </vehicle>
    <vehicle id="veh_65" type="passenger" depart="358.53">
        <route edges="E2"/>
    </vehicle>
    <vehicle id="veh_68" type="passenger" depart="362.89">
        <route edges="-E4 -E2 E3"/>
    </vehicle>
    <vehicle id="veh_53" type="passenger" depart="369.91">
        <route edges="-E5 -E2 E1"/>
    </vehicle>
    <vehicle id="veh_75" type="truck" depart="374.53">
        <route edges="-E4 -E2 -E0"/>
    </vehicle>
    <vehicle id="veh_51" type="passenger" depart="374.94">
        <route edges="-E6 -E2 E3"/>
    </vehicle>
    <vehicle id="veh_48" type="passenger" depart="380.04">
        <route edges="E2"/>
    </vehicle>
    <vehicle id="veh_52" type="truck" depart="384.43">
        <route edges="-E2 E3"/>
    </vehicle>
    <vehicle id="veh_33" type="passenger" depart="388.76">
        <route edges="E2 E6"/>
    </vehicle>
    <vehicle id="veh_71" type="passenger" depart="390.34">
        <route edges="-E5 -E2 E1"/>
    </vehicle>
    <vehicle id="veh_87" type="passenger" depart="392.36">
        <route edges="-E3 E2 E6"/>
    </vehicle>
</routes>
