<?xml version="1.0" encoding="UTF-8"?>
<routes>
    <vType id="passenger" accel="2.6" decel="4.5" sigma="0.5" length="5.0" minGap="2.5" maxSpeed="50.0" color="1,0,0"/>
    <vType id="bus" accel="1.2" decel="4.0" sigma="0.5" length="12.0" minGap="3.0" maxSpeed="30.0" color="0,0,1"/>
    <vType id="truck" accel="1.5" decel="3.5" sigma="0.5" length="10.0" minGap="3.0" maxSpeed="40.0" color="0,1,0"/>
    <vType id="motorcycle" accel="3.0" decel="5.0" sigma="0.5" length="2.5" minGap="1.5" maxSpeed="55.0" color="1,1,0"/>
    <vehicle id="veh_44" type="passenger" depart="3.78">
        <route edges="E2 E5"/>
    </vehicle>
    <vehicle id="veh_55" type="passenger" depart="6.13">
        <route edges="-E2 E3"/>
    </vehicle>
    <vehicle id="veh_8" type="passenger" depart="7.61">
        <route edges="-E6 -E2 -E0"/>
    </vehicle>
    <vehicle id="veh_25" type="passenger" depart="7.99">
        <route edges="E0 E2 E5"/>
    </vehicle>
    <vehicle id="veh_53" type="truck" depart="11.99">
        <route edges="-E6 -E2 -E0"/>
    </vehicle>
    <vehicle id="veh_22" type="passenger" depart="12.25">
        <route edges="E0 E2 E4"/>
    </vehicle>
    <vehicle id="veh_32" type="bus" depart="17.63">
        <route edges="E2 E5"/>
    </vehicle>
    <vehicle id="veh_13" type="truck" depart="19.88">
        <route edges="-E5 -E2 E1"/>
    </vehicle>
    <vehicle id="veh_69" type="passenger" depart="24.3">
        <route edges="-E6 -E2 E3"/>
    </vehicle>
    <vehicle id="veh_28" type="motorcycle" depart="24.67">
        <route edges="-E4 -E2 E3"/>
    </vehicle>
    <vehicle id="veh_10" type="truck" depart="29.41">
        <route edges="-E1 E2 E5"/>
    </vehicle>
    <vehicle id="veh_82" type="passenger" depart="32.36">
        <route edges="E2 E4"/>
    </vehicle>
    <vehicle id="veh_58" type="passenger" depart="45.35">
        <route edges="E0 E2 E5"/>
    </vehicle>
    <vehicle id="veh_7" type="passenger" depart="47.71">
        <route edges="-E5 -E2 E1"/>
    </vehicle>
    <vehicle id="veh_71" type="passenger" depart="47.75">
        <route edges="-E2 E1"/>
    </vehicle>
    <vehicle id="veh_73" type="passenger" depart="52.51">
        <route edges="E2"/>
    </vehicle>
    <vehicle id="veh_63" type="passenger" depart="62.44">
        <route edges="E0 E2 E4"/>
    </vehicle>
    <vehicle id="veh_78" type="passenger" depart="76.73">
        <route edges="-E4 -E2 -E0"/>
    </vehicle>
    <vehicle id="veh_52" type="passenger" depart="78.61">
        <route edges="-E2 E3"/>
    </vehicle>
    <vehicle id="veh_72" type="passenger" depart="82.32">
        <route edges="-E6 -E2 E3"/>
    </vehicle>
    <vehicle id="veh_81" type="truck" depart="82.66">
        <route edges="-E3 E2 E6"/>
    </vehicle>
    <vehicle id="veh_24" type="passenger" depart="86.63">
        <route edges="E0 E3"/>
    </vehicle>
    <vehicle id="veh_38" type="passenger" depart="88.31">
        <route edges="E0 E2 E5"/>
    </vehicle>
    <vehicle id="veh_14" type="passenger" depart="89.05">
        <route edges="E2 E5"/>
    </vehicle>
    <vehicle id="veh_40" type="truck" depart="91.81">
        <route edges="E2"/>
    </vehicle>
    <vehicle id="veh_15" type="passenger" depart="98.82">
        <route edges="-E5 E4"/>
    </vehicle>
    <vehicle id="veh_31" type="passenger" depart="105.79">
        <route edges="-E3 E2 E4"/>
    </vehicle>
    <vehicle id="veh_21" type="passenger" depart="108.54">
        <route edges="-E5 E4"/>
    </vehicle>
    <vehicle id="veh_33" type="passenger" depart="111.41">
        <route edges="E2 E4"/>
    </vehicle>
    <vehicle id="veh_62" type="passenger" depart="112.39">
        <route edges="-E1 E2 E5"/>
    </vehicle>
    <vehicle id="veh_0" type="bus" depart="114.38">
        <route edges="E2"/>
    </vehicle>
    <vehicle id="veh_54" type="passenger" depart="115.1">
        <route edges="E2"/>
    </vehicle>
    <vehicle id="veh_36" type="passenger" depart="118.63">
        <route edges="-E4 -E2 E3"/>
    </vehicle>
    <vehicle id="veh_6" type="passenger" depart="121.56">
        <route edges="-E5 -E2 E1"/>
    </vehicle>
    <vehicle id="veh_79" type="passenger" depart="126.46">
        <route edges="-E1 E2 E5"/>
    </vehicle>
    <vehicle id="veh_65" type="passenger" depart="140.88">
        <route edges="-E2 E3"/>
    </vehicle>
    <vehicle id="veh_57" type="motorcycle" depart="142.53">
        <route edges="-E6 -E2 E3"/>
    </vehicle>
    <vehicle id="veh_35" type="passenger" depart="143.64">
        <route edges="-E1 E2 E6"/>
    </vehicle>
    <vehicle id="veh_84" type="passenger" depart="147.24">
        <route edges="-E1 E2 E6"/>
    </vehicle>
    <vehicle id="veh_51" type="motorcycle" depart="148.17">
        <route edges="-E5 E6"/>
    </vehicle>
    <vehicle id="veh_27" type="passenger" depart="149.84">
        <route edges="-E6 -E2 -E0"/>
    </vehicle>
    <vehicle id="veh_34" type="passenger" depart="152.71">
        <route edges="-E5 -E2 E1"/>
    </vehicle>
    <vehicle id="veh_1" type="bus" depart="152.81">
        <route edges="-E6 E4"/>
    </vehicle>
    <vehicle id="veh_67" type="passenger" depart="154.53">
        <route edges="-E6 E4"/>
    </vehicle>
    <vehicle id="veh_70" type="passenger" depart="157.32">
        <route edges="E0 E2 E5"/>
    </vehicle>
    <vehicle id="veh_75" type="bus" depart="159.55">
        <route edges="-E2 E1"/>
    </vehicle>
    <vehicle id="veh_23" type="passenger" depart="166.35">
        <route edges="-E6 -E2 E3"/>
    </vehicle>
    <vehicle id="veh_11" type="passenger" depart="166.99">
        <route edges="-E1 -E0"/>
    </vehicle>
    <vehicle id="veh_18" type="passenger" depart="174.69">
        <route edges="E2 E6"/>
    </vehicle>
    <vehicle id="veh_64" type="passenger" depart="187.14">
        <route edges="-E4 -E2 -E0"/>
    </vehicle>
    <vehicle id="veh_4" type="bus" depart="211.49">
        <route edges="-E5 E6"/>
    </vehicle>
    <vehicle id="veh_9" type="passenger" depart="215.47">
        <route edges="-E5 E6"/>
    </vehicle>
    <vehicle id="veh_41" type="bus" depart="228.31">
        <route edges="E2 E4"/>
    </vehicle>
    <vehicle id="veh_16" type="passenger" depart="230.68">
        <route edges="-E5 E4"/>
    </vehicle>
    <vehicle id="veh_26" type="passenger" depart="234.64">
        <route edges="-E3 E2 E4"/>
    </vehicle>
    <vehicle id="veh_80" type="passenger" depart="238.08">
        <route edges="-E2 E1"/>
    </vehicle>
    <vehicle id="veh_30" type="motorcycle" depart="243.64">
        <route edges="-E6 -E2 E3"/>
    </vehicle>
    <vehicle id="veh_47" type="passenger" depart="249.97">
        <route edges="-E6 E4"/>
    </vehicle>
    <vehicle id="veh_12" type="truck" depart="262.31">
        <route edges="-E3 E2 E4"/>
    </vehicle>
    <vehicle id="veh_43" type="passenger" depart="276.77">
        <route edges="E0 E2 E4"/>
    </vehicle>
    <vehicle id="veh_76" type="passenger" depart="286.02">
        <route edges="E2"/>
    </vehicle>
    <vehicle id="veh_60" type="bus" depart="287.51">
        <route edges="E0 E3"/>
    </vehicle>
    <vehicle id="veh_77" type="passenger" depart="288.59">
        <route edges="-E5 E4"/>
    </vehicle>
    <vehicle id="veh_17" type="passenger" depart="289.05">
        <route edges="-E1 -E0"/>
    </vehicle>
    <vehicle id="veh_39" type="passenger" depart="294.23">
        <route edges="E2 E5"/>
    </vehicle>
    <vehicle id="veh_46" type="motorcycle" depart="297.72">
        <route edges="-E5 -E2 E1"/>
    </vehicle>
    <vehicle id="veh_49" type="bus" depart="306.28">
        <route edges="-E4 -E2 -E0"/>
    </vehicle>
    <vehicle id="veh_29" type="passenger" depart="306.29">
        <route edges="E2 E6"/>
    </vehicle>
    <vehicle id="veh_86" type="motorcycle" depart="306.79">
        <route edges="-E3 E2 E4"/>
    </vehicle>
    <vehicle id="veh_50" type="passenger" depart="308.99">
        <route edges="-E5 -E2 E1"/>
    </vehicle>
    <vehicle id="veh_3" type="passenger" depart="313.0">
        <route edges="E0 E2 E4"/>
    </vehicle>
    <vehicle id="veh_45" type="bus" depart="314.7">
        <route edges="-E4 -E2 E3"/>
    </vehicle>
    <vehicle id="veh_5" type="passenger" depart="321.74">
        <route edges="-E5 -E2 E1"/>
    </vehicle>
    <vehicle id="veh_56" type="passenger" depart="328.51">
        <route edges="-E2 E1"/>
    </vehicle>
    <vehicle id="veh_85" type="passenger" depart="333.13">
        <route edges="E0 E2 E5"/>
    </vehicle>
    <vehicle id="veh_20" type="passenger" depart="337.69">
        <route edges="-E1 E2 E6"/>
    </vehicle>
    <vehicle id="veh_37" type="passenger" depart="342.04">
        <route edges="E2"/>
    </vehicle>
    <vehicle id="veh_83" type="passenger" depart="343.49">
        <route edges="-E2 E1"/>
    </vehicle>
    <vehicle id="veh_19" type="passenger" depart="356.87">
        <route edges="-E6 -E2 E3"/>
    </vehicle>
    <vehicle id="veh_2" type="passenger" depart="374.26">
        <route edges="E0 E2 E4"/>
    </vehicle>
    <vehicle id="veh_59" type="passenger" depart="378.13">
        <route edges="E2 E5"/>
    </vehicle>
    <vehicle id="veh_61" type="passenger" depart="378.83">
        <route edges="E0 E3"/>
    </vehicle>
    <vehicle id="veh_68" type="passenger" depart="378.9">
        <route edges="E2 E4"/>
    </vehicle>
    <vehicle id="veh_42" type="passenger" depart="389.81">
        <route edges="-E1 E2 E5"/>
    </vehicle>
    <vehicle id="veh_87" type="motorcycle" depart="394.86">
        <route edges="-E5 E6"/>
    </vehicle>
    <vehicle id="veh_66" type="passenger" depart="395.23">
        <route edges="E2"/>
    </vehicle>
    <vehicle id="veh_74" type="passenger" depart="397.94">
        <route edges="-E1 E2 E5"/>
    </vehicle>
    <vehicle id="veh_48" type="bus" depart="398.05">
        <route edges="-E1 E2 E6"/>
    </vehicle>
</routes>
