<?xml version="1.0" encoding="UTF-8"?>

<!-- generated on 2025-12-15 10:25:53.567000 by Eclipse SUMO randomTrips.py v1_25_0+0000-ac6c5a6752d
<configuration>
    <end value="500.0"/>
    <net-file value="C:/Phi/Work/SimulationData/Intersect_Test/network.net.xml"/>
    <route-file value="C:/Phi/Work/SimulationData/Intersect_Test/routes.rou.xml"/>
    <output-trip-file value="C:/Phi/Work/SimulationData/Intersect_Test/trips.trips.xml"/>
</configuration>
-->

<!-- generated on 2025-12-15T10:25:53.470813+07:00 by Eclipse SUMO duarouter 1.25.0
<duarouterConfiguration xmlns:xsi="http://www.w3.org/2001/XMLSchema-instance" xsi:noNamespaceSchemaLocation="http://sumo.dlr.de/xsd/duarouterConfiguration.xsd">

    <input>
        <net-file value="C:/Phi/Work/SimulationData/Intersect_Test/network.net.xml"/>
        <route-files value="C:/Phi/Work/SimulationData/Intersect_Test/trips.trips.xml"/>
    </input>

    <output>
        <output-file value="C:/Phi/Work/SimulationData/Intersect_Test/routes.rou.xml"/>
        <alternatives-output value="NUL"/>
    </output>

    <time>
        <begin value="0"/>
        <end value="500.0"/>
    </time>

    <report>
        <no-warnings value="true"/>
        <ignore-errors value="true"/>
        <no-step-log value="true"/>
    </report>

</duarouterConfiguration>
-->

<routes xmlns:xsi="http://www.w3.org/2001/XMLSchema-instance" xsi:noNamespaceSchemaLocation="http://sumo.dlr.de/xsd/routes_file.xsd">
    <vehicle id="0" depart="0.00">
        <route edges="-E6 -E2 -E0"/>
    </vehicle>
    <vehicle id="2" depart="2.00">
        <route edges="-E6 E4"/>
    </vehicle>
    <vehicle id="4" depart="4.00">
        <route edges="-E4 -E2 -E0"/>
    </vehicle>
    <vehicle id="5" depart="5.00">
        <route edges="-E2 E3"/>
    </vehicle>
    <vehicle id="7" depart="7.00">
        <route edges="-E6 -E2 E3"/>
    </vehicle>
    <vehicle id="8" depart="8.00">
        <route edges="-E2 E3"/>
    </vehicle>
    <vehicle id="10" depart="10.00">
        <route edges="E0 E2 E4"/>
    </vehicle>
    <vehicle id="13" depart="13.00">
        <route edges="-E1 -E0"/>
    </vehicle>
    <vehicle id="14" depart="14.00">
        <route edges="E0 E3"/>
    </vehicle>
    <vehicle id="15" depart="15.00">
        <route edges="E0 E2 E4"/>
    </vehicle>
    <vehicle id="16" depart="16.00">
        <route edges="-E5 E6"/>
    </vehicle>
    <vehicle id="17" depart="17.00">
        <route edges="-E4 -E2 E3"/>
    </vehicle>
    <vehicle id="18" depart="18.00">
        <route edges="E0 E3"/>
    </vehicle>
    <vehicle id="19" depart="19.00">
        <route edges="E0 E3"/>
    </vehicle>
    <vehicle id="20" depart="20.00">
        <route edges="-E6 -E2 -E0"/>
    </vehicle>
    <vehicle id="21" depart="21.00">
        <route edges="-E2 E1"/>
    </vehicle>
    <vehicle id="24" depart="24.00">
        <route edges="-E6 -E2 E1"/>
    </vehicle>
    <vehicle id="26" depart="26.00">
        <route edges="-E3 E2 E6"/>
    </vehicle>
    <vehicle id="27" depart="27.00">
        <route edges="-E6 -E2 E3"/>
    </vehicle>
    <vehicle id="30" depart="30.00">
        <route edges="E2 E4"/>
    </vehicle>
    <vehicle id="31" depart="31.00">
        <route edges="-E5 E4"/>
    </vehicle>
    <vehicle id="32" depart="32.00">
        <route edges="E0 E2 E5"/>
    </vehicle>
    <vehicle id="33" depart="33.00">
        <route edges="-E2 -E0"/>
    </vehicle>
    <vehicle id="34" depart="34.00">
        <route edges="-E3 E1"/>
    </vehicle>
    <vehicle id="38" depart="38.00">
        <route edges="E2"/>
    </vehicle>
    <vehicle id="40" depart="40.00">
        <route edges="-E5 -E2 E1"/>
    </vehicle>
    <vehicle id="41" depart="41.00">
        <route edges="-E5 E6"/>
    </vehicle>
    <vehicle id="42" depart="42.00">
        <route edges="-E4 -E2"/>
    </vehicle>
    <vehicle id="44" depart="44.00">
        <route edges="-E1 -E0"/>
    </vehicle>
    <vehicle id="45" depart="45.00">
        <route edges="-E1 E2 E4"/>
    </vehicle>
    <vehicle id="46" depart="46.00">
        <route edges="E0 E2"/>
    </vehicle>
    <vehicle id="47" depart="47.00">
        <route edges="-E1 E2"/>
    </vehicle>
    <vehicle id="49" depart="49.00">
        <route edges="E2 E5"/>
    </vehicle>
    <vehicle id="50" depart="50.00">
        <route edges="-E1 E2 E4"/>
    </vehicle>
    <vehicle id="51" depart="51.00">
        <route edges="-E6 -E2 E3"/>
    </vehicle>
    <vehicle id="52" depart="52.00">
        <route edges="-E3 E2 E4"/>
    </vehicle>
    <vehicle id="53" depart="53.00">
        <route edges="-E1 E2"/>
    </vehicle>
    <vehicle id="54" depart="54.00">
        <route edges="-E4 E6"/>
    </vehicle>
    <vehicle id="56" depart="56.00">
        <route edges="-E5 -E2"/>
    </vehicle>
    <vehicle id="57" depart="57.00">
        <route edges="E2 E5"/>
    </vehicle>
    <vehicle id="58" depart="58.00">
        <route edges="-E3 E2 E4"/>
    </vehicle>
    <vehicle id="59" depart="59.00">
        <route edges="-E5 -E2"/>
    </vehicle>
    <vehicle id="60" depart="60.00">
        <route edges="E0 E3"/>
    </vehicle>
    <vehicle id="61" depart="61.00">
        <route edges="E0 E3"/>
    </vehicle>
    <vehicle id="63" depart="63.00">
        <route edges="-E1 E2 E6"/>
    </vehicle>
    <vehicle id="64" depart="64.00">
        <route edges="E2 E5"/>
    </vehicle>
    <vehicle id="65" depart="65.00">
        <route edges="-E3 -E0"/>
    </vehicle>
    <vehicle id="66" depart="66.00">
        <route edges="E2 E6"/>
    </vehicle>
    <vehicle id="67" depart="67.00">
        <route edges="-E1 E2"/>
    </vehicle>
    <vehicle id="68" depart="68.00">
        <route edges="-E1 E2 E5"/>
    </vehicle>
    <vehicle id="70" depart="70.00">
        <route edges="-E4 -E2 E3"/>
    </vehicle>
    <vehicle id="71" depart="71.00">
        <route edges="-E3 E2 E5"/>
    </vehicle>
    <vehicle id="72" depart="72.00">
        <route edges="-E4 -E2"/>
    </vehicle>
    <vehicle id="73" depart="73.00">
        <route edges="-E5 E4"/>
    </vehicle>
    <vehicle id="74" depart="74.00">
        <route edges="-E2 E1"/>
    </vehicle>
    <vehicle id="75" depart="75.00">
        <route edges="E2 E4"/>
    </vehicle>
    <vehicle id="76" depart="76.00">
        <route edges="-E4 -E2 E3"/>
    </vehicle>
    <vehicle id="79" depart="79.00">
        <route edges="-E2"/>
    </vehicle>
    <vehicle id="80" depart="80.00">
        <route edges="-E1 E2 E4"/>
    </vehicle>
    <vehicle id="84" depart="84.00">
        <route edges="-E2"/>
    </vehicle>
    <vehicle id="86" depart="86.00">
        <route edges="-E4 E5"/>
    </vehicle>
    <vehicle id="88" depart="88.00">
        <route edges="-E1 E2"/>
    </vehicle>
    <vehicle id="90" depart="90.00">
        <route edges="-E6 E4"/>
    </vehicle>
    <vehicle id="92" depart="92.00">
        <route edges="-E4 -E2 E1"/>
    </vehicle>
    <vehicle id="95" depart="95.00">
        <route edges="-E4 -E2 E1"/>
    </vehicle>
    <vehicle id="97" depart="97.00">
        <route edges="-E4 E5"/>
    </vehicle>
    <vehicle id="98" depart="98.00">
        <route edges="-E5 -E2 -E0"/>
    </vehicle>
    <vehicle id="99" depart="99.00">
        <route edges="E2 E5"/>
    </vehicle>
    <vehicle id="100" depart="100.00">
        <route edges="E2 E6"/>
    </vehicle>
    <vehicle id="102" depart="102.00">
        <route edges="-E4 -E2"/>
    </vehicle>
    <vehicle id="103" depart="103.00">
        <route edges="-E4 -E2 -E0"/>
    </vehicle>
    <vehicle id="104" depart="104.00">
        <route edges="-E4 E6"/>
    </vehicle>
    <vehicle id="105" depart="105.00">
        <route edges="-E3 E2 E5"/>
    </vehicle>
    <vehicle id="107" depart="107.00">
        <route edges="E2 E6"/>
    </vehicle>
    <vehicle id="108" depart="108.00">
        <route edges="-E5 E4"/>
    </vehicle>
    <vehicle id="109" depart="109.00">
        <route edges="-E2 E1"/>
    </vehicle>
    <vehicle id="111" depart="111.00">
        <route edges="-E5 E4"/>
    </vehicle>
    <vehicle id="112" depart="112.00">
        <route edges="-E1 E3"/>
    </vehicle>
    <vehicle id="116" depart="116.00">
        <route edges="-E5 E4"/>
    </vehicle>
    <vehicle id="117" depart="117.00">
        <route edges="-E2 -E0"/>
    </vehicle>
    <vehicle id="119" depart="119.00">
        <route edges="-E5 -E2 E3"/>
    </vehicle>
    <vehicle id="120" depart="120.00">
        <route edges="-E4 -E2 E3"/>
    </vehicle>
    <vehicle id="121" depart="121.00">
        <route edges="-E5 E6"/>
    </vehicle>
    <vehicle id="124" depart="124.00">
        <route edges="-E6 -E2 E1"/>
    </vehicle>
    <vehicle id="125" depart="125.00">
        <route edges="-E3 E2 E5"/>
    </vehicle>
    <vehicle id="126" depart="126.00">
        <route edges="-E1 E2"/>
    </vehicle>
    <vehicle id="127" depart="127.00">
        <route edges="E2 E6"/>
    </vehicle>
    <vehicle id="129" depart="129.00">
        <route edges="-E3 E2 E6"/>
    </vehicle>
    <vehicle id="130" depart="130.00">
        <route edges="E2 E6"/>
    </vehicle>
    <vehicle id="132" depart="132.00">
        <route edges="E0 E2 E4"/>
    </vehicle>
    <vehicle id="133" depart="133.00">
        <route edges="-E5 E6"/>
    </vehicle>
    <vehicle id="134" depart="134.00">
        <route edges="-E6 -E2 -E0"/>
    </vehicle>
    <vehicle id="135" depart="135.00">
        <route edges="E0 E1"/>
    </vehicle>
    <vehicle id="137" depart="137.00">
        <route edges="-E2 -E0"/>
    </vehicle>
    <vehicle id="138" depart="138.00">
        <route edges="-E1 E3"/>
    </vehicle>
    <vehicle id="140" depart="140.00">
        <route edges="-E6 -E2"/>
    </vehicle>
    <vehicle id="141" depart="141.00">
        <route edges="-E6 -E2 E1"/>
    </vehicle>
    <vehicle id="142" depart="142.00">
        <route edges="-E4 E6"/>
    </vehicle>
    <vehicle id="144" depart="144.00">
        <route edges="-E4 -E2 E1"/>
    </vehicle>
    <vehicle id="145" depart="145.00">
        <route edges="-E1 E2 E5"/>
    </vehicle>
    <vehicle id="146" depart="146.00">
        <route edges="-E6 -E2 E1"/>
    </vehicle>
    <vehicle id="147" depart="147.00">
        <route edges="-E6 -E2 E3"/>
    </vehicle>
    <vehicle id="148" depart="148.00">
        <route edges="-E4 -E2 -E0"/>
    </vehicle>
    <vehicle id="149" depart="149.00">
        <route edges="-E1 E2 E6"/>
    </vehicle>
    <vehicle id="151" depart="151.00">
        <route edges="E0 E3"/>
    </vehicle>
    <vehicle id="152" depart="152.00">
        <route edges="-E2"/>
    </vehicle>
    <vehicle id="153" depart="153.00">
        <route edges="-E3 E2 E6"/>
    </vehicle>
    <vehicle id="154" depart="154.00">
        <route edges="E0 E2 E5"/>
    </vehicle>
    <vehicle id="156" depart="156.00">
        <route edges="-E2 -E0"/>
    </vehicle>
    <vehicle id="157" depart="157.00">
        <route edges="E0 E2 E6"/>
    </vehicle>
    <vehicle id="158" depart="158.00">
        <route edges="-E4 -E2 E3"/>
    </vehicle>
    <vehicle id="160" depart="160.00">
        <route edges="E0 E2 E6"/>
    </vehicle>
    <vehicle id="161" depart="161.00">
        <route edges="E0 E2 E6"/>
    </vehicle>
    <vehicle id="162" depart="162.00">
        <route edges="-E1 E2 E4"/>
    </vehicle>
    <vehicle id="163" depart="163.00">
        <route edges="-E3 E2 E6"/>
    </vehicle>
    <vehicle id="164" depart="164.00">
        <route edges="E0 E2 E5"/>
    </vehicle>
    <vehicle id="165" depart="165.00">
        <route edges="E0 E1"/>
    </vehicle>
    <vehicle id="167" depart="167.00">
        <route edges="E0 E2 E5"/>
    </vehicle>
    <vehicle id="169" depart="169.00">
        <route edges="-E4 -E2 E1"/>
    </vehicle>
    <vehicle id="172" depart="172.00">
        <route edges="-E3 E2 E5"/>
    </vehicle>
    <vehicle id="179" depart="179.00">
        <route edges="-E1 E2"/>
    </vehicle>
    <vehicle id="180" depart="180.00">
        <route edges="-E6 -E2 E1"/>
    </vehicle>
    <vehicle id="181" depart="181.00">
        <route edges="-E5 -E2 E3"/>
    </vehicle>
    <vehicle id="182" depart="182.00">
        <route edges="-E4 -E2 E3"/>
    </vehicle>
    <vehicle id="183" depart="183.00">
        <route edges="-E3 E2 E4"/>
    </vehicle>
    <vehicle id="184" depart="184.00">
        <route edges="-E1 E2 E6"/>
    </vehicle>
    <vehicle id="185" depart="185.00">
        <route edges="-E5 E4"/>
    </vehicle>
    <vehicle id="186" depart="186.00">
        <route edges="-E6 E4"/>
    </vehicle>
    <vehicle id="187" depart="187.00">
        <route edges="-E3 -E0"/>
    </vehicle>
    <vehicle id="188" depart="188.00">
        <route edges="-E6 -E2 E1"/>
    </vehicle>
    <vehicle id="189" depart="189.00">
        <route edges="-E3 E2 E5"/>
    </vehicle>
    <vehicle id="190" depart="190.00">
        <route edges="-E6 -E2 E1"/>
    </vehicle>
    <vehicle id="191" depart="191.00">
        <route edges="-E3 E2"/>
    </vehicle>
    <vehicle id="192" depart="192.00">
        <route edges="-E4 -E2 E1"/>
    </vehicle>
    <vehicle id="194" depart="194.00">
        <route edges="E2 E4"/>
    </vehicle>
    <vehicle id="198" depart="198.00">
        <route edges="-E4 -E2 E3"/>
    </vehicle>
    <vehicle id="200" depart="200.00">
        <route edges="-E4 -E2"/>
    </vehicle>
    <vehicle id="201" depart="201.00">
        <route edges="-E4 E6"/>
    </vehicle>
    <vehicle id="203" depart="203.00">
        <route edges="-E1 E3"/>
    </vehicle>
    <vehicle id="204" depart="204.00">
        <route edges="-E6 -E2 E1"/>
    </vehicle>
    <vehicle id="205" depart="205.00">
        <route edges="E0 E2 E5"/>
    </vehicle>
    <vehicle id="206" depart="206.00">
        <route edges="-E6 -E2"/>
    </vehicle>
    <vehicle id="207" depart="207.00">
        <route edges="-E2 -E0"/>
    </vehicle>
    <vehicle id="212" depart="212.00">
        <route edges="-E4 -E2"/>
    </vehicle>
    <vehicle id="213" depart="213.00">
        <route edges="-E6 -E2 -E0"/>
    </vehicle>
    <vehicle id="214" depart="214.00">
        <route edges="E0 E2 E5"/>
    </vehicle>
    <vehicle id="215" depart="215.00">
        <route edges="-E1 E2"/>
    </vehicle>
    <vehicle id="217" depart="217.00">
        <route edges="-E5 -E2 -E0"/>
    </vehicle>
    <vehicle id="219" depart="219.00">
        <route edges="-E4 E5"/>
    </vehicle>
    <vehicle id="221" depart="221.00">
        <route edges="-E5 E6"/>
    </vehicle>
    <vehicle id="223" depart="223.00">
        <route edges="-E6 -E2 E3"/>
    </vehicle>
    <vehicle id="224" depart="224.00">
        <route edges="E0 E3"/>
    </vehicle>
    <vehicle id="225" depart="225.00">
        <route edges="E2 E4"/>
    </vehicle>
    <vehicle id="226" depart="226.00">
        <route edges="-E4 -E2 E1"/>
    </vehicle>
    <vehicle id="228" depart="228.00">
        <route edges="E0 E3"/>
    </vehicle>
    <vehicle id="229" depart="229.00">
        <route edges="-E6 -E2 E1"/>
    </vehicle>
    <vehicle id="231" depart="231.00">
        <route edges="-E3 E1"/>
    </vehicle>
    <vehicle id="232" depart="232.00">
        <route edges="-E5 -E2"/>
    </vehicle>
    <vehicle id="234" depart="234.00">
        <route edges="-E6 -E2 -E0"/>
    </vehicle>
    <vehicle id="235" depart="235.00">
        <route edges="-E4 -E2 E3"/>
    </vehicle>
    <vehicle id="236" depart="236.00">
        <route edges="-E4 -E2"/>
    </vehicle>
    <vehicle id="237" depart="237.00">
        <route edges="-E4 E6"/>
    </vehicle>
    <vehicle id="238" depart="238.00">
        <route edges="-E5 E4"/>
    </vehicle>
    <vehicle id="239" depart="239.00">
        <route edges="E0 E2 E5"/>
    </vehicle>
    <vehicle id="240" depart="240.00">
        <route edges="-E4 -E2 -E0"/>
    </vehicle>
    <vehicle id="241" depart="241.00">
        <route edges="-E3 E2 E5"/>
    </vehicle>
    <vehicle id="242" depart="242.00">
        <route edges="E0 E2 E6"/>
    </vehicle>
    <vehicle id="244" depart="244.00">
        <route edges="-E5 -E2 E3"/>
    </vehicle>
    <vehicle id="245" depart="245.00">
        <route edges="-E2"/>
    </vehicle>
    <vehicle id="246" depart="246.00">
        <route edges="-E4 -E2 -E0"/>
    </vehicle>
    <vehicle id="247" depart="247.00">
        <route edges="-E3 E2 E4"/>
    </vehicle>
    <vehicle id="248" depart="248.00">
        <route edges="-E4 -E2"/>
    </vehicle>
    <vehicle id="249" depart="249.00">
        <route edges="-E4 -E2"/>
    </vehicle>
    <vehicle id="250" depart="250.00">
        <route edges="-E5 -E2 -E0"/>
    </vehicle>
    <vehicle id="251" depart="251.00">
        <route edges="-E4 -E2 E3"/>
    </vehicle>
    <vehicle id="252" depart="252.00">
        <route edges="-E1 E2 E4"/>
    </vehicle>
    <vehicle id="254" depart="254.00">
        <route edges="-E1 E2"/>
    </vehicle>
    <vehicle id="255" depart="255.00">
        <route edges="-E2 E1"/>
    </vehicle>
    <vehicle id="256" depart="256.00">
        <route edges="E0 E2"/>
    </vehicle>
    <vehicle id="257" depart="257.00">
        <route edges="E0 E2 E5"/>
    </vehicle>
    <vehicle id="258" depart="258.00">
        <route edges="-E3 -E0"/>
    </vehicle>
    <vehicle id="259" depart="259.00">
        <route edges="-E1 E3"/>
    </vehicle>
    <vehicle id="261" depart="261.00">
        <route edges="-E6 E5"/>
    </vehicle>
    <vehicle id="262" depart="262.00">
        <route edges="-E6 E5"/>
    </vehicle>
    <vehicle id="266" depart="266.00">
        <route edges="-E5 -E2"/>
    </vehicle>
    <vehicle id="267" depart="267.00">
        <route edges="-E6 E5"/>
    </vehicle>
    <vehicle id="268" depart="268.00">
        <route edges="-E2 E3"/>
    </vehicle>
    <vehicle id="269" depart="269.00">
        <route edges="-E6 -E2 -E0"/>
    </vehicle>
    <vehicle id="270" depart="270.00">
        <route edges="E0 E2 E6"/>
    </vehicle>
    <vehicle id="271" depart="271.00">
        <route edges="-E1 -E0"/>
    </vehicle>
    <vehicle id="272" depart="272.00">
        <route edges="-E3 E2 E4"/>
    </vehicle>
    <vehicle id="273" depart="273.00">
        <route edges="E2"/>
    </vehicle>
    <vehicle id="274" depart="274.00">
        <route edges="-E6 -E2 -E0"/>
    </vehicle>
    <vehicle id="275" depart="275.00">
        <route edges="-E6 E4"/>
    </vehicle>
    <vehicle id="276" depart="276.00">
        <route edges="-E1 E2 E5"/>
    </vehicle>
    <vehicle id="277" depart="277.00">
        <route edges="E0 E3"/>
    </vehicle>
    <vehicle id="278" depart="278.00">
        <route edges="-E1 E2 E6"/>
    </vehicle>
    <vehicle id="279" depart="279.00">
        <route edges="E0 E1"/>
    </vehicle>
    <vehicle id="280" depart="280.00">
        <route edges="-E4 -E2 E1"/>
    </vehicle>
    <vehicle id="281" depart="281.00">
        <route edges="-E5 -E2 E1"/>
    </vehicle>
    <vehicle id="282" depart="282.00">
        <route edges="E0 E2 E5"/>
    </vehicle>
    <vehicle id="283" depart="283.00">
        <route edges="-E1 E2 E6"/>
    </vehicle>
    <vehicle id="284" depart="284.00">
        <route edges="-E6 E5"/>
    </vehicle>
    <vehicle id="287" depart="287.00">
        <route edges="-E3 E2 E5"/>
    </vehicle>
    <vehicle id="290" depart="290.00">
        <route edges="-E3 E2 E5"/>
    </vehicle>
    <vehicle id="293" depart="293.00">
        <route edges="-E4 -E2 E3"/>
    </vehicle>
    <vehicle id="294" depart="294.00">
        <route edges="-E4 -E2 -E0"/>
    </vehicle>
    <vehicle id="297" depart="297.00">
        <route edges="-E3 E2 E6"/>
    </vehicle>
    <vehicle id="298" depart="298.00">
        <route edges="-E6 -E2 E1"/>
    </vehicle>
    <vehicle id="299" depart="299.00">
        <route edges="-E1 E2 E6"/>
    </vehicle>
    <vehicle id="300" depart="300.00">
        <route edges="-E1 E2 E4"/>
    </vehicle>
    <vehicle id="301" depart="301.00">
        <route edges="-E4 E5"/>
    </vehicle>
    <vehicle id="302" depart="302.00">
        <route edges="-E6 E4"/>
    </vehicle>
    <vehicle id="303" depart="303.00">
        <route edges="-E4 E5"/>
    </vehicle>
    <vehicle id="305" depart="305.00">
        <route edges="-E6 -E2 E1"/>
    </vehicle>
    <vehicle id="308" depart="308.00">
        <route edges="-E6 -E2 E1"/>
    </vehicle>
    <vehicle id="309" depart="309.00">
        <route edges="-E6 -E2 E1"/>
    </vehicle>
    <vehicle id="310" depart="310.00">
        <route edges="-E3 -E0"/>
    </vehicle>
    <vehicle id="311" depart="311.00">
        <route edges="-E2 -E0"/>
    </vehicle>
    <vehicle id="313" depart="313.00">
        <route edges="-E2"/>
    </vehicle>
    <vehicle id="316" depart="316.00">
        <route edges="-E3 -E0"/>
    </vehicle>
    <vehicle id="317" depart="317.00">
        <route edges="-E2"/>
    </vehicle>
    <vehicle id="318" depart="318.00">
        <route edges="-E2 -E0"/>
    </vehicle>
    <vehicle id="319" depart="319.00">
        <route edges="-E5 -E2 E1"/>
    </vehicle>
    <vehicle id="321" depart="321.00">
        <route edges="-E6 -E2"/>
    </vehicle>
    <vehicle id="322" depart="322.00">
        <route edges="E0 E2"/>
    </vehicle>
    <vehicle id="323" depart="323.00">
        <route edges="E0 E3"/>
    </vehicle>
    <vehicle id="325" depart="325.00">
        <route edges="-E2 -E0"/>
    </vehicle>
    <vehicle id="326" depart="326.00">
        <route edges="E2"/>
    </vehicle>
    <vehicle id="327" depart="327.00">
        <route edges="E0 E2"/>
    </vehicle>
    <vehicle id="328" depart="328.00">
        <route edges="-E1 E2 E4"/>
    </vehicle>
    <vehicle id="330" depart="330.00">
        <route edges="-E5 -E2 E1"/>
    </vehicle>
    <vehicle id="332" depart="332.00">
        <route edges="E0 E3"/>
    </vehicle>
    <vehicle id="335" depart="335.00">
        <route edges="-E4 E5"/>
    </vehicle>
    <vehicle id="337" depart="337.00">
        <route edges="-E5 -E2 E3"/>
    </vehicle>
    <vehicle id="339" depart="339.00">
        <route edges="-E2"/>
    </vehicle>
    <vehicle id="340" depart="340.00">
        <route edges="-E6 -E2"/>
    </vehicle>
    <vehicle id="341" depart="341.00">
        <route edges="-E2 -E0"/>
    </vehicle>
    <vehicle id="342" depart="342.00">
        <route edges="-E1 E2"/>
    </vehicle>
    <vehicle id="343" depart="343.00">
        <route edges="-E5 -E2 E1"/>
    </vehicle>
    <vehicle id="347" depart="347.00">
        <route edges="E0 E2 E4"/>
    </vehicle>
    <vehicle id="349" depart="349.00">
        <route edges="-E4 -E2 E3"/>
    </vehicle>
    <vehicle id="352" depart="352.00">
        <route edges="-E2 E1"/>
    </vehicle>
    <vehicle id="353" depart="353.00">
        <route edges="-E6 -E2 E3"/>
    </vehicle>
    <vehicle id="354" depart="354.00">
        <route edges="-E3 -E0"/>
    </vehicle>
    <vehicle id="355" depart="355.00">
        <route edges="-E6 E4"/>
    </vehicle>
    <vehicle id="357" depart="357.00">
        <route edges="-E4 -E2 -E0"/>
    </vehicle>
    <vehicle id="358" depart="358.00">
        <route edges="-E1 E2"/>
    </vehicle>
    <vehicle id="359" depart="359.00">
        <route edges="-E3 E1"/>
    </vehicle>
    <vehicle id="360" depart="360.00">
        <route edges="-E1 E2 E6"/>
    </vehicle>
    <vehicle id="361" depart="361.00">
        <route edges="E0 E3"/>
    </vehicle>
    <vehicle id="362" depart="362.00">
        <route edges="E2 E6"/>
    </vehicle>
    <vehicle id="363" depart="363.00">
        <route edges="-E6 -E2 E1"/>
    </vehicle>
    <vehicle id="364" depart="364.00">
        <route edges="-E1 E2 E5"/>
    </vehicle>
    <vehicle id="367" depart="367.00">
        <route edges="-E5 E4"/>
    </vehicle>
    <vehicle id="368" depart="368.00">
        <route edges="-E4 -E2 -E0"/>
    </vehicle>
    <vehicle id="369" depart="369.00">
        <route edges="-E3 E1"/>
    </vehicle>
    <vehicle id="370" depart="370.00">
        <route edges="-E6 E5"/>
    </vehicle>
    <vehicle id="371" depart="371.00">
        <route edges="-E3 E2 E4"/>
    </vehicle>
    <vehicle id="372" depart="372.00">
        <route edges="-E3 E2 E6"/>
    </vehicle>
    <vehicle id="373" depart="373.00">
        <route edges="E0 E3"/>
    </vehicle>
    <vehicle id="374" depart="374.00">
        <route edges="-E4 -E2 E1"/>
    </vehicle>
    <vehicle id="375" depart="375.00">
        <route edges="-E3 E2 E6"/>
    </vehicle>
    <vehicle id="376" depart="376.00">
        <route edges="-E4 -E2 E3"/>
    </vehicle>
    <vehicle id="377" depart="377.00">
        <route edges="E2 E4"/>
    </vehicle>
    <vehicle id="379" depart="379.00">
        <route edges="-E2 E1"/>
    </vehicle>
    <vehicle id="380" depart="380.00">
        <route edges="E0 E2 E4"/>
    </vehicle>
    <vehicle id="382" depart="382.00">
        <route edges="-E5 E6"/>
    </vehicle>
    <vehicle id="384" depart="384.00">
        <route edges="-E1 E2 E6"/>
    </vehicle>
    <vehicle id="385" depart="385.00">
        <route edges="-E5 -E2"/>
    </vehicle>
    <vehicle id="386" depart="386.00">
        <route edges="-E2 E3"/>
    </vehicle>
    <vehicle id="387" depart="387.00">
        <route edges="-E5 -E2 -E0"/>
    </vehicle>
    <vehicle id="388" depart="388.00">
        <route edges="E2 E6"/>
    </vehicle>
    <vehicle id="389" depart="389.00">
        <route edges="-E4 -E2 -E0"/>
    </vehicle>
    <vehicle id="390" depart="390.00">
        <route edges="E0 E2"/>
    </vehicle>
    <vehicle id="391" depart="391.00">
        <route edges="-E6 -E2 E3"/>
    </vehicle>
    <vehicle id="392" depart="392.00">
        <route edges="-E3 E2 E5"/>
    </vehicle>
    <vehicle id="396" depart="396.00">
        <route edges="E2 E5"/>
    </vehicle>
    <vehicle id="397" depart="397.00">
        <route edges="-E3 E2 E5"/>
    </vehicle>
    <vehicle id="398" depart="398.00">
        <route edges="-E4 E6"/>
    </vehicle>
    <vehicle id="400" depart="400.00">
        <route edges="-E3 E1"/>
    </vehicle>
    <vehicle id="401" depart="401.00">
        <route edges="-E5 E6"/>
    </vehicle>
    <vehicle id="402" depart="402.00">
        <route edges="-E4 -E2"/>
    </vehicle>
    <vehicle id="403" depart="403.00">
        <route edges="-E5 -E2 E1"/>
    </vehicle>
    <vehicle id="404" depart="404.00">
        <route edges="-E5 -E2 E3"/>
    </vehicle>
    <vehicle id="405" depart="405.00">
        <route edges="-E4 -E2 E1"/>
    </vehicle>
    <vehicle id="407" depart="407.00">
        <route edges="-E5 -E2"/>
    </vehicle>
    <vehicle id="409" depart="409.00">
        <route edges="-E6 E4"/>
    </vehicle>
    <vehicle id="410" depart="410.00">
        <route edges="E0 E2"/>
    </vehicle>
    <vehicle id="411" depart="411.00">
        <route edges="-E6 E5"/>
    </vehicle>
    <vehicle id="412" depart="412.00">
        <route edges="E2"/>
    </vehicle>
    <vehicle id="413" depart="413.00">
        <route edges="-E1 E3"/>
    </vehicle>
    <vehicle id="415" depart="415.00">
        <route edges="E0 E2"/>
    </vehicle>
    <vehicle id="418" depart="418.00">
        <route edges="-E6 -E2"/>
    </vehicle>
    <vehicle id="419" depart="419.00">
        <route edges="-E4 E6"/>
    </vehicle>
    <vehicle id="420" depart="420.00">
        <route edges="-E3 E2 E4"/>
    </vehicle>
    <vehicle id="421" depart="421.00">
        <route edges="-E6 E5"/>
    </vehicle>
    <vehicle id="422" depart="422.00">
        <route edges="E0 E2 E5"/>
    </vehicle>
    <vehicle id="423" depart="423.00">
        <route edges="-E4 -E2 E1"/>
    </vehicle>
    <vehicle id="424" depart="424.00">
        <route edges="-E6 E5"/>
    </vehicle>
    <vehicle id="426" depart="426.00">
        <route edges="-E1 E2 E4"/>
    </vehicle>
    <vehicle id="427" depart="427.00">
        <route edges="E2 E6"/>
    </vehicle>
    <vehicle id="429" depart="429.00">
        <route edges="-E1 E2 E4"/>
    </vehicle>
    <vehicle id="430" depart="430.00">
        <route edges="E0 E2"/>
    </vehicle>
    <vehicle id="432" depart="432.00">
        <route edges="-E1 E2 E5"/>
    </vehicle>
    <vehicle id="433" depart="433.00">
        <route edges="-E3 E1"/>
    </vehicle>
    <vehicle id="434" depart="434.00">
        <route edges="-E2 E3"/>
    </vehicle>
    <vehicle id="436" depart="436.00">
        <route edges="-E2 -E0"/>
    </vehicle>
    <vehicle id="437" depart="437.00">
        <route edges="E0 E3"/>
    </vehicle>
    <vehicle id="440" depart="440.00">
        <route edges="-E3 E1"/>
    </vehicle>
    <vehicle id="441" depart="441.00">
        <route edges="-E1 E2 E5"/>
    </vehicle>
    <vehicle id="442" depart="442.00">
        <route edges="E2 E4"/>
    </vehicle>
    <vehicle id="446" depart="446.00">
        <route edges="-E3 E2 E5"/>
    </vehicle>
    <vehicle id="448" depart="448.00">
        <route edges="-E4 -E2"/>
    </vehicle>
    <vehicle id="449" depart="449.00">
        <route edges="-E5 -E2 E3"/>
    </vehicle>
    <vehicle id="451" depart="451.00">
        <route edges="E2 E4"/>
    </vehicle>
    <vehicle id="453" depart="453.00">
        <route edges="-E6 E4"/>
    </vehicle>
    <vehicle id="454" depart="454.00">
        <route edges="-E1 E3"/>
    </vehicle>
    <vehicle id="455" depart="455.00">
        <route edges="-E4 E6"/>
    </vehicle>
    <vehicle id="456" depart="456.00">
        <route edges="-E3 E2 E5"/>
    </vehicle>
    <vehicle id="457" depart="457.00">
        <route edges="-E5 -E2 E1"/>
    </vehicle>
    <vehicle id="458" depart="458.00">
        <route edges="-E6 -E2 E3"/>
    </vehicle>
    <vehicle id="459" depart="459.00">
        <route edges="-E6 E4"/>
    </vehicle>
    <vehicle id="460" depart="460.00">
        <route edges="-E6 E5"/>
    </vehicle>
    <vehicle id="462" depart="462.00">
        <route edges="-E6 -E2 E1"/>
    </vehicle>
    <vehicle id="463" depart="463.00">
        <route edges="-E4 -E2 E3"/>
    </vehicle>
    <vehicle id="464" depart="464.00">
        <route edges="-E6 -E2 -E0"/>
    </vehicle>
    <vehicle id="465" depart="465.00">
        <route edges="-E3 E2 E4"/>
    </vehicle>