<?xml version="1.0" encoding="UTF-8"?>
<routes>
    <vType id="passenger" accel="2.6" decel="4.5" sigma="0.5" length="5.0" minGap="2.5" maxSpeed="50.0" color="1,0,0"/>
    <vType id="bus" accel="1.2" decel="4.0" sigma="0.5" length="12.0" minGap="3.0" maxSpeed="30.0" color="0,0,1"/>
    <vType id="truck" accel="1.5" decel="3.5" sigma="0.5" length="10.0" minGap="3.0" maxSpeed="40.0" color="0,1,0"/>
    <vType id="motorcycle" accel="3.0" decel="5.0" sigma="0.5" length="2.5" minGap="1.5" maxSpeed="55.0" color="1,1,0"/>
    <vehicle id="veh_59" type="motorcycle" depart="8.97">
        <route edges="-E5 E6"/>
    </vehicle>
    <vehicle id="veh_33" type="truck" depart="12.75">
        <route edges="E0 E2 E5"/>
    </vehicle>
    <vehicle id="veh_27" type="passenger" depart="17.61">
        <route edges="E0 E2 E4"/>
    </vehicle>
    <vehicle id="veh_55" type="bus" depart="36.62">
        <route edges="E2 E6"/>
    </vehicle>
    <vehicle id="veh_28" type="truck" depart="37.92">
        <route edges="E0 E2 E5"/>
    </vehicle>
    <vehicle id="veh_51" type="passenger" depart="45.14">
        <route edges="E2 E5"/>
    </vehicle>
    <vehicle id="veh_30" type="passenger" depart="45.62">
        <route edges="-E1 E2 E6"/>
    </vehicle>
    <vehicle id="veh_69" type="truck" depart="45.68">
        <route edges="-E2 E1"/>
    </vehicle>
    <vehicle id="veh_80" type="passenger" depart="47.21">
        <route edges="-E5 E6"/>
    </vehicle>
    <vehicle id="veh_26" type="passenger" depart="51.18">
        <route edges="-E4 -E2 E3"/>
    </vehicle>
    <vehicle id="veh_34" type="passenger" depart="53.13">
        <route edges="-E5 E4"/>
    </vehicle>
    <vehicle id="veh_3" type="passenger" depart="53.36">
        <route edges="-E1 -E0"/>
    </vehicle>
    <vehicle id="veh_22" type="passenger" depart="59.05">
        <route edges="E0 E2 E4"/>
    </vehicle>
    <vehicle id="veh_49" type="bus" depart="74.6">
        <route edges="-E4 -E2 E3"/>
    </vehicle>
    <vehicle id="veh_76" type="motorcycle" depart="78.75">
        <route edges="-E6 -E2 -E0"/>
    </vehicle>
    <vehicle id="veh_66" type="passenger" depart="78.89">
        <route edges="E2 E6"/>
    </vehicle>
    <vehicle id="veh_67" type="passenger" depart="91.74">
        <route edges="E0 E2 E4"/>
    </vehicle>
    <vehicle id="veh_68" type="truck" depart="96.79">
        <route edges="-E5 E4"/>
    </vehicle>
    <vehicle id="veh_48" type="passenger" depart="103.55">
        <route edges="-E4 -E2 -E0"/>
    </vehicle>
    <vehicle id="veh_19" type="passenger" depart="105.12">
        <route edges="E2"/>
    </vehicle>
    <vehicle id="veh_40" type="truck" depart="108.78">
        <route edges="E2"/>
    </vehicle>
    <vehicle id="veh_81" type="passenger" depart="110.91">
        <route edges="E2 E4"/>
    </vehicle>
    <vehicle id="veh_20" type="passenger" depart="119.57">
        <route edges="-E6 -E2 E3"/>
    </vehicle>
    <vehicle id="veh_45" type="passenger" depart="123.97">
        <route edges="E0 E2 E5"/>
    </vehicle>
    <vehicle id="veh_23" type="passenger" depart="131.53">
        <route edges="-E1 E2 E6"/>
    </vehicle>
    <vehicle id="veh_64" type="passenger" depart="139.72">
        <route edges="-E1 -E0"/>
    </vehicle>
    <vehicle id="veh_5" type="passenger" depart="151.39">
        <route edges="-E1 -E0"/>
    </vehicle>
    <vehicle id="veh_21" type="passenger" depart="159.13">
        <route edges="-E6 -E2 E3"/>
    </vehicle>
    <vehicle id="veh_41" type="bus" depart="159.4">
        <route edges="-E1 E2 E5"/>
    </vehicle>
    <vehicle id="veh_71" type="passenger" depart="165.2">
        <route edges="-E6 E4"/>
    </vehicle>
    <vehicle id="veh_32" type="passenger" depart="170.5">
        <route edges="E2 E6"/>
    </vehicle>
    <vehicle id="veh_65" type="passenger" depart="180.78">
        <route edges="-E3 E2 E6"/>
    </vehicle>
    <vehicle id="veh_57" type="passenger" depart="185.04">
        <route edges="E2 E5"/>
    </vehicle>
    <vehicle id="veh_62" type="passenger" depart="185.15">
        <route edges="E2 E4"/>
    </vehicle>
    <vehicle id="veh_24" type="bus" depart="193.35">
        <route edges="E0 E2 E4"/>
    </vehicle>
    <vehicle id="veh_7" type="passenger" depart="205.12">
        <route edges="-E5 E6"/>
    </vehicle>
    <vehicle id="veh_1" type="motorcycle" depart="213.32">
        <route edges="-E1 E2 E6"/>
    </vehicle>
    <vehicle id="veh_18" type="passenger" depart="213.42">
        <route edges="-E2 E1"/>
    </vehicle>
    <vehicle id="veh_82" type="passenger" depart="217.64">
        <route edges="-E5 -E2 E1"/>
    </vehicle>
    <vehicle id="veh_73" type="passenger" depart="229.81">
        <route edges="-E4 -E2 -E0"/>
    </vehicle>
    <vehicle id="veh_31" type="passenger" depart="230.28">
        <route edges="E2 E6"/>
    </vehicle>
    <vehicle id="veh_0" type="truck" depart="231.17">
        <route edges="-E3 E2 E6"/>
    </vehicle>
    <vehicle id="veh_17" type="passenger" depart="231.67">
        <route edges="-E5 E6"/>
    </vehicle>
    <vehicle id="veh_39" type="passenger" depart="233.73">
        <route edges="E2 E6"/>
    </vehicle>
    <vehicle id="veh_25" type="passenger" depart="239.1">
        <route edges="E2 E5"/>
    </vehicle>
    <vehicle id="veh_12" type="passenger" depart="242.01">
        <route edges="-E2 E3"/>
    </vehicle>
    <vehicle id="veh_79" type="motorcycle" depart="255.81">
        <route edges="-E6 -E2 -E0"/>
    </vehicle>
    <vehicle id="veh_75" type="passenger" depart="257.34">
        <route edges="E0 E2 E5"/>
    </vehicle>
    <vehicle id="veh_35" type="passenger" depart="261.87">
        <route edges="-E1 E2 E5"/>
    </vehicle>
    <vehicle id="veh_10" type="truck" depart="262.99">
        <route edges="E2 E4"/>
    </vehicle>
    <vehicle id="veh_9" type="passenger" depart="267.59">
        <route edges="-E5 E4"/>
    </vehicle>
    <vehicle id="veh_85" type="passenger" depart="269.25">
        <route edges="-E3 E2 E4"/>
    </vehicle>
    <vehicle id="veh_2" type="motorcycle" depart="273.64">
        <route edges="-E2 E3"/>
    </vehicle>
    <vehicle id="veh_86" type="passenger" depart="273.71">
        <route edges="E2 E4"/>
    </vehicle>
    <vehicle id="veh_77" type="passenger" depart="274.45">
        <route edges="E2 E5"/>
    </vehicle>
    <vehicle id="veh_37" type="passenger" depart="276.03">
        <route edges="-E6 -E2 -E0"/>
    </vehicle>
    <vehicle id="veh_60" type="passenger" depart="280.37">
        <route edges="-E1 E2 E6"/>
    </vehicle>
    <vehicle id="veh_6" type="passenger" depart="280.4">
        <route edges="-E4 -E2 -E0"/>
    </vehicle>
    <vehicle id="veh_16" type="passenger" depart="281.45">
        <route edges="-E1 E2 E6"/>
    </vehicle>
    <vehicle id="veh_63" type="bus" depart="282.55">
        <route edges="E0 E3"/>
    </vehicle>
    <vehicle id="veh_11" type="passenger" depart="282.65">
        <route edges="-E5 E6"/>
    </vehicle>
    <vehicle id="veh_44" type="passenger" depart="282.74">
        <route edges="E2 E6"/>
    </vehicle>
    <vehicle id="veh_78" type="passenger" depart="286.85">
        <route edges="-E1 E2 E5"/>
    </vehicle>
    <vehicle id="veh_50" type="motorcycle" depart="287.17">
        <route edges="-E6 -E2 E3"/>
    </vehicle>
    <vehicle id="veh_15" type="passenger" depart="297.29">
        <route edges="E2"/>
    </vehicle>
    <vehicle id="veh_43" type="bus" depart="298.41">
        <route edges="-E1 E2 E6"/>
    </vehicle>
    <vehicle id="veh_47" type="passenger" depart="298.68">
        <route edges="-E4 -E2 -E0"/>
    </vehicle>
    <vehicle id="veh_58" type="truck" depart="307.56">
        <route edges="E2 E4"/>
    </vehicle>
    <vehicle id="veh_84" type="passenger" depart="308.47">
        <route edges="-E4 -E2 E3"/>
    </vehicle>
    <vehicle id="veh_54" type="passenger" depart="314.01">
        <route edges="E2 E5"/>
    </vehicle>
    <vehicle id="veh_56" type="passenger" depart="318.39">
        <route edges="E2 E6"/>
    </vehicle>
    <vehicle id="veh_38" type="passenger" depart="320.31">
        <route edges="E2"/>
    </vehicle>
    <vehicle id="veh_29" type="passenger" depart="321.8">
        <route edges="E0 E3"/>
    </vehicle>
    <vehicle id="veh_42" type="passenger" depart="333.44">
        <route edges="-E6 E4"/>
    </vehicle>
    <vehicle id="veh_74" type="truck" depart="339.19">
        <route edges="-E2 E1"/>
    </vehicle>
    <vehicle id="veh_4" type="bus" depart="352.45">
        <route edges="E2"/>
    </vehicle>
    <vehicle id="veh_61" type="passenger" depart="352.87">
        <route edges="-E4 -E2 E3"/>
    </vehicle>
    <vehicle id="veh_72" type="motorcycle" depart="353.71">
        <route edges="-E6 E4"/>
    </vehicle>
    <vehicle id="veh_8" type="passenger" depart="359.13">
        <route edges="-E3 E2 E6"/>
    </vehicle>
    <vehicle id="veh_36" type="truck" depart="360.39">
        <route edges="E2 E4"/>
    </vehicle>
    <vehicle id="veh_14" type="passenger" depart="360.81">
        <route edges="-E4 -E2 -E0"/>
    </vehicle>
    <vehicle id="veh_13" type="passenger" depart="363.01">
        <route edges="-E3 E2 E6"/>
    </vehicle>
    <vehicle id="veh_52" type="passenger" depart="371.9">
        <route edges="-E1 E2 E5"/>
    </vehicle>
    <vehicle id="veh_46" type="passenger" depart="373.03">
        <route edges="-E2 E3"/>
    </vehicle>
    <vehicle id="veh_83" type="passenger" depart="381.64">
        <route edges="-E3 E2 E6"/>
    </vehicle>
    <vehicle id="veh_53" type="passenger" depart="385.26">
        <route edges="E0 E2 E5"/>
    </vehicle>
    <vehicle id="veh_70" type="passenger" depart="386.95">
        <route edges="E2 E5"/>
    </vehicle>
    <vehicle id="veh_87" type="passenger" depart="393.52">
        <route edges="-E5 -E2 E1"/>
    </vehicle>
</routes>
