<?xml version="1.0" encoding="UTF-8"?>
<routes>
    <vType id="passenger" accel="2.6" decel="4.5" sigma="0.5" length="5.0" minGap="2.5" maxSpeed="50.0" color="1,0,0"/>
    <vType id="bus" accel="1.2" decel="4.0" sigma="0.5" length="12.0" minGap="3.0" maxSpeed="30.0" color="0,0,1"/>
    <vType id="truck" accel="1.5" decel="3.5" sigma="0.5" length="10.0" minGap="3.0" maxSpeed="40.0" color="0,1,0"/>
    <vType id="motorcycle" accel="3.0" decel="5.0" sigma="0.5" length="2.5" minGap="1.5" maxSpeed="55.0" color="1,1,0"/>
    <vehicle id="veh_60" type="motorcycle" depart="4.15">
        <route edges="-E5 E4"/>
    </vehicle>
    <vehicle id="veh_68" type="passenger" depart="9.79">
        <route edges="E2 E5"/>
    </vehicle>
    <vehicle id="veh_87" type="motorcycle" depart="11.84">
        <route edges="-E3 E2 E6"/>
    </vehicle>
    <vehicle id="veh_84" type="motorcycle" depart="15.65">
        <route edges="E2"/>
    </vehicle>
    <vehicle id="veh_70" type="truck" depart="15.84">
        <route edges="-E4 -E2 E3"/>
    </vehicle>
    <vehicle id="veh_18" type="passenger" depart="16.53">
        <route edges="-E1 E2 E6"/>
    </vehicle>
    <vehicle id="veh_66" type="passenger" depart="24.59">
        <route edges="-E4 -E2 -E0"/>
    </vehicle>
    <vehicle id="veh_79" type="passenger" depart="29.24">
        <route edges="E2 E5"/>
    </vehicle>
    <vehicle id="veh_23" type="motorcycle" depart="31.27">
        <route edges="E0 E3"/>
    </vehicle>
    <vehicle id="veh_17" type="passenger" depart="32.2">
        <route edges="-E3 E2 E4"/>
    </vehicle>
    <vehicle id="veh_76" type="passenger" depart="32.8">
        <route edges="-E5 E4"/>
    </vehicle>
    <vehicle id="veh_8" type="passenger" depart="33.07">
        <route edges="-E3 E2 E6"/>
    </vehicle>
    <vehicle id="veh_42" type="passenger" depart="38.51">
        <route edges="E2 E6"/>
    </vehicle>
    <vehicle id="veh_34" type="passenger" depart="45.97">
        <route edges="E0 E2 E4"/>
    </vehicle>
    <vehicle id="veh_85" type="bus" depart="46.12">
        <route edges="-E6 E4"/>
    </vehicle>
    <vehicle id="veh_51" type="bus" depart="57.65">
        <route edges="-E4 -E2 -E0"/>
    </vehicle>
    <vehicle id="veh_27" type="passenger" depart="62.63">
        <route edges="-E2 E3"/>
    </vehicle>
    <vehicle id="veh_74" type="passenger" depart="65.46">
        <route edges="E0 E2 E4"/>
    </vehicle>
    <vehicle id="veh_29" type="passenger" depart="67.05">
        <route edges="-E2 E1"/>
    </vehicle>
    <vehicle id="veh_0" type="passenger" depart="70.91">
        <route edges="E2 E5"/>
    </vehicle>
    <vehicle id="veh_30" type="passenger" depart="71.06">
        <route edges="E2 E6"/>
    </vehicle>
    <vehicle id="veh_86" type="passenger" depart="73.33">
        <route edges="-E2 E1"/>
    </vehicle>
    <vehicle id="veh_57" type="passenger" depart="74.34">
        <route edges="E2 E5"/>
    </vehicle>
    <vehicle id="veh_83" type="passenger" depart="89.8">
        <route edges="E2 E6"/>
    </vehicle>
    <vehicle id="veh_28" type="truck" depart="94.66">
        <route edges="-E3 E2 E6"/>
    </vehicle>
    <vehicle id="veh_3" type="passenger" depart="95.17">
        <route edges="-E6 E4"/>
    </vehicle>
    <vehicle id="veh_16" type="passenger" depart="113.76">
        <route edges="E2 E4"/>
    </vehicle>
    <vehicle id="veh_14" type="passenger" depart="115.21">
        <route edges="-E1 -E0"/>
    </vehicle>
    <vehicle id="veh_67" type="passenger" depart="119.6">
        <route edges="E0 E3"/>
    </vehicle>
    <vehicle id="veh_78" type="truck" depart="121.28">
        <route edges="E2 E5"/>
    </vehicle>
    <vehicle id="veh_41" type="bus" depart="127.38">
        <route edges="-E3 E2 E6"/>
    </vehicle>
    <vehicle id="veh_31" type="passenger" depart="130.52">
        <route edges="E2 E6"/>
    </vehicle>
    <vehicle id="veh_69" type="passenger" depart="135.52">
        <route edges="-E2 E1"/>
    </vehicle>
    <vehicle id="veh_39" type="passenger" depart="138.25">
        <route edges="E0 E3"/>
    </vehicle>
    <vehicle id="veh_61" type="motorcycle" depart="140.93">
        <route edges="E0 E2 E5"/>
    </vehicle>
    <vehicle id="veh_12" type="passenger" depart="142.81">
        <route edges="-E2 E3"/>
    </vehicle>
    <vehicle id="veh_58" type="bus" depart="144.32">
        <route edges="-E4 -E2 E3"/>
    </vehicle>
    <vehicle id="veh_36" type="passenger" depart="145.9">
        <route edges="-E5 E6"/>
    </vehicle>
    <vehicle id="veh_63" type="passenger" depart="146.91">
        <route edges="-E2 E1"/>
    </vehicle>
    <vehicle id="veh_20" type="passenger" depart="148.94">
        <route edges="E0 E2 E4"/>
    </vehicle>
    <vehicle id="veh_38" type="passenger" depart="158.78">
        <route edges="-E2 E1"/>
    </vehicle>
    <vehicle id="veh_80" type="truck" depart="164.91">
        <route edges="E2 E4"/>
    </vehicle>
    <vehicle id="veh_33" type="motorcycle" depart="178.77">
        <route edges="-E5 -E2 E1"/>
    </vehicle>
    <vehicle id="veh_21" type="passenger" depart="185.87">
        <route edges="-E2 E1"/>
    </vehicle>
    <vehicle id="veh_73" type="passenger" depart="190.98">
        <route edges="E2"/>
    </vehicle>
    <vehicle id="veh_49" type="passenger" depart="201.89">
        <route edges="E0 E2 E4"/>
    </vehicle>
    <vehicle id="veh_4" type="passenger" depart="203.27">
        <route edges="-E1 -E0"/>
    </vehicle>
    <vehicle id="veh_32" type="passenger" depart="213.9">
        <route edges="E2"/>
    </vehicle>
    <vehicle id="veh_5" type="passenger" depart="223.7">
        <route edges="E0 E2 E5"/>
    </vehicle>
    <vehicle id="veh_40" type="passenger" depart="231.82">
        <route edges="-E4 -E2 -E0"/>
    </vehicle>
    <vehicle id="veh_13" type="passenger" depart="233.11">
        <route edges="-E3 E2 E6"/>
    </vehicle>
    <vehicle id="veh_2" type="passenger" depart="234.85">
        <route edges="-E4 -E2 -E0"/>
    </vehicle>
    <vehicle id="veh_77" type="passenger" depart="238.88">
        <route edges="E0 E2 E5"/>
    </vehicle>
    <vehicle id="veh_45" type="passenger" depart="238.93">
        <route edges="E0 E3"/>
    </vehicle>
    <vehicle id="veh_72" type="passenger" depart="241.65">
        <route edges="-E4 -E2 E3"/>
    </vehicle>
    <vehicle id="veh_25" type="passenger" depart="250.43">
        <route edges="E0 E2 E5"/>
    </vehicle>
    <vehicle id="veh_81" type="passenger" depart="255.15">
        <route edges="-E3 E2 E6"/>
    </vehicle>
    <vehicle id="veh_50" type="passenger" depart="260.21">
        <route edges="-E6 -E2 E3"/>
    </vehicle>
    <vehicle id="veh_55" type="passenger" depart="263.8">
        <route edges="E2 E5"/>
    </vehicle>
    <vehicle id="veh_64" type="passenger" depart="265.72">
        <route edges="-E1 E2 E6"/>
    </vehicle>
    <vehicle id="veh_52" type="passenger" depart="267.66">
        <route edges="-E5 E4"/>
    </vehicle>
    <vehicle id="veh_6" type="passenger" depart="267.89">
        <route edges="-E5 E4"/>
    </vehicle>
    <vehicle id="veh_10" type="passenger" depart="267.9">
        <route edges="-E5 E4"/>
    </vehicle>
    <vehicle id="veh_15" type="truck" depart="271.99">
        <route edges="-E6 -E2 -E0"/>
    </vehicle>
    <vehicle id="veh_22" type="passenger" depart="288.51">
        <route edges="-E5 E4"/>
    </vehicle>
    <vehicle id="veh_71" type="passenger" depart="293.54">
        <route edges="-E2 E3"/>
    </vehicle>
    <vehicle id="veh_46" type="passenger" depart="298.96">
        <route edges="-E2 E1"/>
    </vehicle>
    <vehicle id="veh_1" type="passenger" depart="305.21">
        <route edges="E2 E6"/>
    </vehicle>
    <vehicle id="veh_9" type="passenger" depart="309.03">
        <route edges="-E1 E2 E5"/>
    </vehicle>
    <vehicle id="veh_56" type="passenger" depart="314.74">
        <route edges="E0 E3"/>
    </vehicle>
    <vehicle id="veh_75" type="passenger" depart="316.65">
        <route edges="E2"/>
    </vehicle>
    <vehicle id="veh_37" type="passenger" depart="326.99">
        <route edges="E0 E2 E4"/>
    </vehicle>
    <vehicle id="veh_35" type="motorcycle" depart="331.85">
        <route edges="E2 E6"/>
    </vehicle>
    <vehicle id="veh_26" type="passenger" depart="333.65">
        <route edges="E2 E6"/>
    </vehicle>
    <vehicle id="veh_7" type="truck" depart="334.12">
        <route edges="E0 E2 E5"/>
    </vehicle>
    <vehicle id="veh_43" type="truck" depart="337.6">
        <route edges="-E1 -E0"/>
    </vehicle>
    <vehicle id="veh_44" type="passenger" depart="338.08">
        <route edges="E0 E3"/>
    </vehicle>
    <vehicle id="veh_82" type="passenger" depart="342.48">
        <route edges="E2"/>
    </vehicle>
    <vehicle id="veh_11" type="passenger" depart="350.59">
        <route edges="-E3 E2 E4"/>
    </vehicle>
    <vehicle id="veh_24" type="bus" depart="355.03">
        <route edges="-E1 E2 E6"/>
    </vehicle>
    <vehicle id="veh_53" type="passenger" depart="356.35">
        <route edges="E0 E3"/>
    </vehicle>
    <vehicle id="veh_19" type="passenger" depart="369.11">
        <route edges="-E2 E1"/>
    </vehicle>
    <vehicle id="veh_48" type="passenger" depart="378.82">
        <route edges="-E6 -E2 -E0"/>
    </vehicle>
    <vehicle id="veh_59" type="passenger" depart="381.78">
        <route edges="-E1 E2 E5"/>
    </vehicle>
    <vehicle id="veh_54" type="motorcycle" depart="393.66">
        <route edges="E2 E5"/>
    </vehicle>
    <vehicle id="veh_47" type="passenger" depart="395.72">
        <route edges="E0 E2 E5"/>
    </vehicle>
    <vehicle id="veh_65" type="truck" depart="396.08">
        <route edges="E0 E2 E4"/>
    </vehicle>
    <vehicle id="veh_62" type="passenger" depart="396.68">
        <route edges="-E6 -E2 -E0"/>
    </vehicle>
</routes>
