<?xml version="1.0" encoding="UTF-8"?>
<routes>
    <vType id="passenger" accel="2.6" decel="4.5" sigma="0.5" length="5.0" minGap="2.5" maxSpeed="50.0" color="1,0,0"/>
    <vType id="bus" accel="1.2" decel="4.0" sigma="0.5" length="12.0" minGap="3.0" maxSpeed="30.0" color="0,0,1"/>
    <vType id="truck" accel="1.5" decel="3.5" sigma="0.5" length="10.0" minGap="3.0" maxSpeed="40.0" color="0,1,0"/>
    <vType id="motorcycle" accel="3.0" decel="5.0" sigma="0.5" length="2.5" minGap="1.5" maxSpeed="55.0" color="1,1,0"/>
    <vehicle id="veh_77" type="passenger" depart="3.25">
        <route edges="-E2 E3"/>
    </vehicle>
    <vehicle id="veh_28" type="passenger" depart="3.88">
        <route edges="E0 E2 E5"/>
    </vehicle>
    <vehicle id="veh_37" type="passenger" depart="7.54">
        <route edges="E0 E2 E5"/>
    </vehicle>
    <vehicle id="veh_53" type="passenger" depart="7.79">
        <route edges="-E6 -E2 -E0"/>
    </vehicle>
    <vehicle id="veh_88" type="passenger" depart="10.26">
        <route edges="-E4 -E2 E3"/>
    </vehicle>
    <vehicle id="veh_1" type="passenger" depart="11.85">
        <route edges="E0 E2 E4"/>
    </vehicle>
    <vehicle id="veh_21" type="passenger" depart="13.26">
        <route edges="E0 E3"/>
    </vehicle>
    <vehicle id="veh_43" type="passenger" depart="28.61">
        <route edges="-E6 -E2 E3"/>
    </vehicle>
    <vehicle id="veh_93" type="passenger" depart="39.81">
        <route edges="E0 E2 E5"/>
    </vehicle>
    <vehicle id="veh_33" type="passenger" depart="41.43">
        <route edges="E2 E6"/>
    </vehicle>
    <vehicle id="veh_36" type="passenger" depart="42.66">
        <route edges="-E6 -E2 -E0"/>
    </vehicle>
    <vehicle id="veh_60" type="truck" depart="44.3">
        <route edges="-E2 E3"/>
    </vehicle>
    <vehicle id="veh_78" type="passenger" depart="51.81">
        <route edges="-E2 E3"/>
    </vehicle>
    <vehicle id="veh_9" type="passenger" depart="52.72">
        <route edges="E0 E3"/>
    </vehicle>
    <vehicle id="veh_14" type="passenger" depart="55.31">
        <route edges="-E4 -E2 -E0"/>
    </vehicle>
    <vehicle id="veh_27" type="passenger" depart="62.76">
        <route edges="-E6 -E2 E3"/>
    </vehicle>
    <vehicle id="veh_16" type="passenger" depart="62.85">
        <route edges="E2 E4"/>
    </vehicle>
    <vehicle id="veh_56" type="passenger" depart="66.8">
        <route edges="-E2 E3"/>
    </vehicle>
    <vehicle id="veh_52" type="motorcycle" depart="67.4">
        <route edges="E0 E2 E4"/>
    </vehicle>
    <vehicle id="veh_7" type="truck" depart="67.67">
        <route edges="-E5 E4"/>
    </vehicle>
    <vehicle id="veh_58" type="passenger" depart="73.03">
        <route edges="-E5 E6"/>
    </vehicle>
    <vehicle id="veh_76" type="passenger" depart="78.39">
        <route edges="E0 E2 E5"/>
    </vehicle>
    <vehicle id="veh_65" type="passenger" depart="80.11">
        <route edges="-E5 -E2 E1"/>
    </vehicle>
    <vehicle id="veh_4" type="motorcycle" depart="83.48">
        <route edges="-E3 E2 E6"/>
    </vehicle>
    <vehicle id="veh_31" type="passenger" depart="83.73">
        <route edges="-E1 -E0"/>
    </vehicle>
    <vehicle id="veh_10" type="passenger" depart="84.54">
        <route edges="-E3 E2 E4"/>
    </vehicle>
    <vehicle id="veh_89" type="passenger" depart="96.74">
        <route edges="-E5 E6"/>
    </vehicle>
    <vehicle id="veh_95" type="passenger" depart="99.83">
        <route edges="-E6 -E2 E3"/>
    </vehicle>
    <vehicle id="veh_70" type="passenger" depart="102.97">
        <route edges="-E5 -E2 E1"/>
    </vehicle>
    <vehicle id="veh_38" type="bus" depart="106.7">
        <route edges="-E4 -E2 E3"/>
    </vehicle>
    <vehicle id="veh_18" type="motorcycle" depart="108.08">
        <route edges="E2"/>
    </vehicle>
    <vehicle id="veh_46" type="bus" depart="112.33">
        <route edges="-E3 E2 E4"/>
    </vehicle>
    <vehicle id="veh_42" type="passenger" depart="114.49">
        <route edges="-E1 -E0"/>
    </vehicle>
    <vehicle id="veh_8" type="passenger" depart="116.5">
        <route edges="-E1 -E0"/>
    </vehicle>
    <vehicle id="veh_44" type="motorcycle" depart="119.52">
        <route edges="-E3 E2 E6"/>
    </vehicle>
    <vehicle id="veh_25" type="passenger" depart="119.56">
        <route edges="-E5 -E2 E1"/>
    </vehicle>
    <vehicle id="veh_50" type="passenger" depart="119.91">
        <route edges="-E5 E4"/>
    </vehicle>
    <vehicle id="veh_96" type="passenger" depart="128.06">
        <route edges="E2 E5"/>
    </vehicle>
    <vehicle id="veh_5" type="passenger" depart="128.18">
        <route edges="-E1 E2 E5"/>
    </vehicle>
    <vehicle id="veh_86" type="passenger" depart="128.21">
        <route edges="E0 E3"/>
    </vehicle>
    <vehicle id="veh_17" type="passenger" depart="133.22">
        <route edges="-E1 -E0"/>
    </vehicle>
    <vehicle id="veh_22" type="passenger" depart="134.08">
        <route edges="-E4 -E2 -E0"/>
    </vehicle>
    <vehicle id="veh_68" type="motorcycle" depart="141.2">
        <route edges="-E2 E1"/>
    </vehicle>
    <vehicle id="veh_92" type="passenger" depart="141.72">
        <route edges="E2 E5"/>
    </vehicle>
    <vehicle id="veh_74" type="motorcycle" depart="146.53">
        <route edges="E2"/>
    </vehicle>
    <vehicle id="veh_83" type="passenger" depart="149.89">
        <route edges="-E2 E1"/>
    </vehicle>
    <vehicle id="veh_75" type="motorcycle" depart="151.5">
        <route edges="E2 E6"/>
    </vehicle>
    <vehicle id="veh_45" type="passenger" depart="155.7">
        <route edges="-E5 -E2 E1"/>
    </vehicle>
    <vehicle id="veh_59" type="passenger" depart="160.41">
        <route edges="-E1 -E0"/>
    </vehicle>
    <vehicle id="veh_13" type="passenger" depart="169.78">
        <route edges="-E5 -E2 E1"/>
    </vehicle>
    <vehicle id="veh_26" type="passenger" depart="170.26">
        <route edges="-E5 E6"/>
    </vehicle>
    <vehicle id="veh_41" type="passenger" depart="170.29">
        <route edges="-E2 E3"/>
    </vehicle>
    <vehicle id="veh_63" type="passenger" depart="171.91">
        <route edges="E2 E4"/>
    </vehicle>
    <vehicle id="veh_51" type="passenger" depart="173.81">
        <route edges="-E2 E3"/>
    </vehicle>
    <vehicle id="veh_79" type="motorcycle" depart="174.86">
        <route edges="-E6 -E2 E3"/>
    </vehicle>
    <vehicle id="veh_81" type="passenger" depart="175.74">
        <route edges="-E3 E2 E4"/>
    </vehicle>
    <vehicle id="veh_90" type="passenger" depart="184.12">
        <route edges="-E2 E1"/>
    </vehicle>
    <vehicle id="veh_30" type="passenger" depart="191.85">
        <route edges="-E2 E3"/>
    </vehicle>
    <vehicle id="veh_69" type="passenger" depart="192.0">
        <route edges="-E1 E2 E6"/>
    </vehicle>
    <vehicle id="veh_54" type="passenger" depart="193.25">
        <route edges="E2 E4"/>
    </vehicle>
    <vehicle id="veh_20" type="motorcycle" depart="200.2">
        <route edges="-E5 -E2 E1"/>
    </vehicle>
    <vehicle id="veh_72" type="passenger" depart="210.7">
        <route edges="-E1 E2 E6"/>
    </vehicle>
    <vehicle id="veh_11" type="passenger" depart="211.97">
        <route edges="-E6 -E2 -E0"/>
    </vehicle>
    <vehicle id="veh_71" type="passenger" depart="222.65">
        <route edges="-E3 E2 E6"/>
    </vehicle>
    <vehicle id="veh_12" type="passenger" depart="227.82">
        <route edges="-E5 E4"/>
    </vehicle>
    <vehicle id="veh_84" type="passenger" depart="232.45">
        <route edges="-E5 E6"/>
    </vehicle>
    <vehicle id="veh_97" type="bus" depart="240.23">
        <route edges="E2 E6"/>
    </vehicle>
    <vehicle id="veh_32" type="passenger" depart="245.2">
        <route edges="-E1 E2 E6"/>
    </vehicle>
    <vehicle id="veh_91" type="truck" depart="245.45">
        <route edges="E0 E2 E4"/>
    </vehicle>
    <vehicle id="veh_23" type="motorcycle" depart="254.07">
        <route edges="-E5 -E2 E1"/>
    </vehicle>
    <vehicle id="veh_6" type="bus" depart="257.16">
        <route edges="-E5 E4"/>
    </vehicle>
    <vehicle id="veh_2" type="passenger" depart="257.99">
        <route edges="-E2 E3"/>
    </vehicle>
    <vehicle id="veh_98" type="passenger" depart="276.54">
        <route edges="-E1 -E0"/>
    </vehicle>
    <vehicle id="veh_62" type="passenger" depart="277.64">
        <route edges="-E2 E1"/>
    </vehicle>
    <vehicle id="veh_3" type="passenger" depart="286.74">
        <route edges="-E6 E4"/>
    </vehicle>
    <vehicle id="veh_48" type="bus" depart="287.7">
        <route edges="E0 E3"/>
    </vehicle>
    <vehicle id="veh_29" type="passenger" depart="289.19">
        <route edges="-E6 -E2 E3"/>
    </vehicle>
    <vehicle id="veh_57" type="bus" depart="291.02">
        <route edges="E0 E3"/>
    </vehicle>
    <vehicle id="veh_24" type="passenger" depart="295.76">
        <route edges="-E2 E1"/>
    </vehicle>
    <vehicle id="veh_82" type="passenger" depart="299.6">
        <route edges="-E5 -E2 E1"/>
    </vehicle>
    <vehicle id="veh_85" type="passenger" depart="301.33">
        <route edges="-E1 E2 E6"/>
    </vehicle>
    <vehicle id="veh_19" type="passenger" depart="301.49">
        <route edges="E2 E5"/>
    </vehicle>
    <vehicle id="veh_15" type="passenger" depart="311.13">
        <route edges="-E4 -E2 E3"/>
    </vehicle>
    <vehicle id="veh_40" type="passenger" depart="319.08">
        <route edges="E2 E6"/>
    </vehicle>
    <vehicle id="veh_80" type="passenger" depart="320.65">
        <route edges="E0 E3"/>
    </vehicle>
    <vehicle id="veh_0" type="passenger" depart="329.69">
        <route edges="-E2 E3"/>
    </vehicle>
    <vehicle id="veh_66" type="passenger" depart="338.87">
        <route edges="-E5 E6"/>
    </vehicle>
    <vehicle id="veh_47" type="passenger" depart="352.21">
        <route edges="-E4 -E2 -E0"/>
    </vehicle>
    <vehicle id="veh_39" type="passenger" depart="369.88">
        <route edges="E2"/>
    </vehicle>
    <vehicle id="veh_64" type="passenger" depart="375.22">
        <route edges="E2 E6"/>
    </vehicle>
    <vehicle id="veh_87" type="passenger" depart="377.54">
        <route edges="-E3 E2 E4"/>
    </vehicle>
    <vehicle id="veh_55" type="passenger" depart="382.51">
        <route edges="-E6 -E2 E3"/>
    </vehicle>
    <vehicle id="veh_94" type="passenger" depart="385.57">
        <route edges="E0 E2 E5"/>
    </vehicle>
    <vehicle id="veh_49" type="passenger" depart="387.48">
        <route edges="-E5 E6"/>
    </vehicle>
    <vehicle id="veh_73" type="passenger" depart="388.06">
        <route edges="-E3 E2 E4"/>
    </vehicle>
    <vehicle id="veh_99" type="motorcycle" depart="393.38">
        <route edges="-E3 E2 E6"/>
    </vehicle>
    <vehicle id="veh_67" type="passenger" depart="398.12">
        <route edges="E0 E3"/>
    </vehicle>
    <vehicle id="veh_35" type="passenger" depart="398.62">
        <route edges="E2"/>
    </vehicle>
    <vehicle id="veh_34" type="passenger" depart="399.18">
        <route edges="-E6 -E2 -E0"/>
    </vehicle>
    <vehicle id="veh_61" type="truck" depart="399.87">
        <route edges="E2 E4"/>
    </vehicle>
</routes>
