<?xml version="1.0" encoding="UTF-8"?>
<routes>
    <vType id="passenger" accel="2.6" decel="4.5" sigma="0.5" length="5.0" minGap="2.5" maxSpeed="50.0" color="1,0,0"/>
    <vType id="bus" accel="1.2" decel="4.0" sigma="0.5" length="12.0" minGap="3.0" maxSpeed="30.0" color="0,0,1"/>
    <vType id="truck" accel="1.5" decel="3.5" sigma="0.5" length="10.0" minGap="3.0" maxSpeed="40.0" color="0,1,0"/>
    <vType id="motorcycle" accel="3.0" decel="5.0" sigma="0.5" length="2.5" minGap="1.5" maxSpeed="55.0" color="1,1,0"/>
    <vehicle id="veh_88" type="bus" depart="6.29">
        <route edges="-E5 -E2 E1"/>
    </vehicle>
    <vehicle id="veh_36" type="truck" depart="7.16">
        <route edges="E2 E6"/>
    </vehicle>
    <vehicle id="veh_57" type="passenger" depart="8.01">
        <route edges="-E2 E3"/>
    </vehicle>
    <vehicle id="veh_46" type="passenger" depart="16.87">
        <route edges="-E3 E2 E6"/>
    </vehicle>
    <vehicle id="veh_64" type="passenger" depart="23.38">
        <route edges="-E2 E3"/>
    </vehicle>
    <vehicle id="veh_99" type="passenger" depart="24.6">
        <route edges="E2 E5"/>
    </vehicle>
    <vehicle id="veh_69" type="bus" depart="29.77">
        <route edges="E2 E4"/>
    </vehicle>
    <vehicle id="veh_4" type="bus" depart="29.9">
        <route edges="-E6 -E2 E3"/>
    </vehicle>
    <vehicle id="veh_73" type="truck" depart="31.77">
        <route edges="-E6 E4"/>
    </vehicle>
    <vehicle id="veh_86" type="truck" depart="37.38">
        <route edges="-E4 -E2 -E0"/>
    </vehicle>
    <vehicle id="veh_13" type="passenger" depart="39.6">
        <route edges="-E2 E3"/>
    </vehicle>
    <vehicle id="veh_76" type="passenger" depart="44.82">
        <route edges="-E5 E6"/>
    </vehicle>
    <vehicle id="veh_75" type="passenger" depart="45.39">
        <route edges="-E3 E2 E4"/>
    </vehicle>
    <vehicle id="veh_2" type="passenger" depart="45.82">
        <route edges="E0 E2 E5"/>
    </vehicle>
    <vehicle id="veh_98" type="passenger" depart="46.35">
        <route edges="E2 E4"/>
    </vehicle>
    <vehicle id="veh_0" type="bus" depart="50.49">
        <route edges="E2"/>
    </vehicle>
    <vehicle id="veh_21" type="passenger" depart="54.34">
        <route edges="E2 E6"/>
    </vehicle>
    <vehicle id="veh_58" type="truck" depart="55.26">
        <route edges="-E6 -E2 -E0"/>
    </vehicle>
    <vehicle id="veh_5" type="passenger" depart="60.58">
        <route edges="-E4 -E2 E3"/>
    </vehicle>
    <vehicle id="veh_16" type="passenger" depart="68.59">
        <route edges="-E5 E6"/>
    </vehicle>
    <vehicle id="veh_6" type="passenger" depart="69.95">
        <route edges="-E1 E2 E6"/>
    </vehicle>
    <vehicle id="veh_25" type="passenger" depart="74.38">
        <route edges="-E1 E2 E5"/>
    </vehicle>
    <vehicle id="veh_82" type="passenger" depart="80.1">
        <route edges="-E1 E2 E5"/>
    </vehicle>
    <vehicle id="veh_80" type="bus" depart="84.17">
        <route edges="-E5 E6"/>
    </vehicle>
    <vehicle id="veh_49" type="passenger" depart="91.58">
        <route edges="E0 E2 E4"/>
    </vehicle>
    <vehicle id="veh_32" type="passenger" depart="99.72">
        <route edges="-E5 -E2 E1"/>
    </vehicle>
    <vehicle id="veh_29" type="passenger" depart="103.02">
        <route edges="E2 E5"/>
    </vehicle>
    <vehicle id="veh_87" type="passenger" depart="103.67">
        <route edges="E2"/>
    </vehicle>
    <vehicle id="veh_45" type="passenger" depart="103.86">
        <route edges="-E2 E3"/>
    </vehicle>
    <vehicle id="veh_65" type="passenger" depart="104.14">
        <route edges="-E6 -E2 E3"/>
    </vehicle>
    <vehicle id="veh_28" type="passenger" depart="108.48">
        <route edges="-E5 E6"/>
    </vehicle>
    <vehicle id="veh_3" type="bus" depart="128.17">
        <route edges="-E6 E4"/>
    </vehicle>
    <vehicle id="veh_85" type="passenger" depart="134.23">
        <route edges="E0 E2 E5"/>
    </vehicle>
    <vehicle id="veh_56" type="passenger" depart="142.57">
        <route edges="-E4 -E2 -E0"/>
    </vehicle>
    <vehicle id="veh_89" type="passenger" depart="144.0">
        <route edges="-E1 E2 E5"/>
    </vehicle>
    <vehicle id="veh_55" type="passenger" depart="144.87">
        <route edges="-E5 E6"/>
    </vehicle>
    <vehicle id="veh_95" type="passenger" depart="146.88">
        <route edges="-E1 E2 E5"/>
    </vehicle>
    <vehicle id="veh_70" type="bus" depart="149.12">
        <route edges="-E4 -E2 E3"/>
    </vehicle>
    <vehicle id="veh_14" type="passenger" depart="149.35">
        <route edges="-E6 -E2 -E0"/>
    </vehicle>
    <vehicle id="veh_24" type="passenger" depart="160.43">
        <route edges="E0 E3"/>
    </vehicle>
    <vehicle id="veh_72" type="passenger" depart="171.9">
        <route edges="-E4 -E2 -E0"/>
    </vehicle>
    <vehicle id="veh_62" type="passenger" depart="174.15">
        <route edges="-E6 -E2 E3"/>
    </vehicle>
    <vehicle id="veh_53" type="passenger" depart="182.52">
        <route edges="E2 E6"/>
    </vehicle>
    <vehicle id="veh_50" type="passenger" depart="183.43">
        <route edges="-E4 -E2 -E0"/>
    </vehicle>
    <vehicle id="veh_63" type="passenger" depart="183.54">
        <route edges="-E5 E6"/>
    </vehicle>
    <vehicle id="veh_34" type="truck" depart="187.12">
        <route edges="E2 E6"/>
    </vehicle>
    <vehicle id="veh_8" type="truck" depart="194.79">
        <route edges="E2 E5"/>
    </vehicle>
    <vehicle id="veh_33" type="bus" depart="195.64">
        <route edges="-E4 -E2 -E0"/>
    </vehicle>
    <vehicle id="veh_61" type="passenger" depart="202.93">
        <route edges="E2 E5"/>
    </vehicle>
    <vehicle id="veh_77" type="motorcycle" depart="209.76">
        <route edges="-E5 E6"/>
    </vehicle>
    <vehicle id="veh_31" type="passenger" depart="213.81">
        <route edges="E0 E2 E4"/>
    </vehicle>
    <vehicle id="veh_26" type="passenger" depart="214.0">
        <route edges="-E4 -E2 E3"/>
    </vehicle>
    <vehicle id="veh_92" type="passenger" depart="218.55">
        <route edges="E2 E6"/>
    </vehicle>
    <vehicle id="veh_18" type="passenger" depart="221.38">
        <route edges="-E2 E1"/>
    </vehicle>
    <vehicle id="veh_19" type="passenger" depart="223.99">
        <route edges="-E6 -E2 E3"/>
    </vehicle>
    <vehicle id="veh_74" type="motorcycle" depart="225.62">
        <route edges="-E1 E2 E6"/>
    </vehicle>
    <vehicle id="veh_42" type="passenger" depart="227.63">
        <route edges="E0 E2 E5"/>
    </vehicle>
    <vehicle id="veh_43" type="passenger" depart="228.28">
        <route edges="-E2 E1"/>
    </vehicle>
    <vehicle id="veh_11" type="passenger" depart="229.04">
        <route edges="E0 E2 E5"/>
    </vehicle>
    <vehicle id="veh_47" type="truck" depart="230.78">
        <route edges="E0 E2 E5"/>
    </vehicle>
    <vehicle id="veh_52" type="bus" depart="231.83">
        <route edges="E2 E5"/>
    </vehicle>
    <vehicle id="veh_54" type="motorcycle" depart="241.88">
        <route edges="-E5 E4"/>
    </vehicle>
    <vehicle id="veh_59" type="passenger" depart="253.78">
        <route edges="-E3 E2 E4"/>
    </vehicle>
    <vehicle id="veh_83" type="motorcycle" depart="255.23">
        <route edges="-E2 E3"/>
    </vehicle>
    <vehicle id="veh_68" type="passenger" depart="255.92">
        <route edges="-E3 E2 E6"/>
    </vehicle>
    <vehicle id="veh_94" type="passenger" depart="261.02">
        <route edges="E0 E2 E4"/>
    </vehicle>
    <vehicle id="veh_39" type="motorcycle" depart="266.83">
        <route edges="-E6 -E2 -E0"/>
    </vehicle>
    <vehicle id="veh_38" type="bus" depart="269.66">
        <route edges="E2 E6"/>
    </vehicle>
    <vehicle id="veh_48" type="passenger" depart="270.71">
        <route edges="-E6 E4"/>
    </vehicle>
    <vehicle id="veh_96" type="passenger" depart="279.51">
        <route edges="E2"/>
    </vehicle>
    <vehicle id="veh_17" type="truck" depart="287.3">
        <route edges="E2 E6"/>
    </vehicle>
    <vehicle id="veh_23" type="bus" depart="287.35">
        <route edges="-E6 -E2 -E0"/>
    </vehicle>
    <vehicle id="veh_15" type="passenger" depart="292.19">
        <route edges="E0 E2 E5"/>
    </vehicle>
    <vehicle id="veh_9" type="passenger" depart="293.56">
        <route edges="E2 E4"/>
    </vehicle>
    <vehicle id="veh_27" type="passenger" depart="296.04">
        <route edges="-E4 -E2 -E0"/>
    </vehicle>
    <vehicle id="veh_41" type="passenger" depart="298.19">
        <route edges="-E4 -E2 -E0"/>
    </vehicle>
    <vehicle id="veh_1" type="passenger" depart="299.1">
        <route edges="-E6 E4"/>
    </vehicle>
    <vehicle id="veh_67" type="passenger" depart="303.36">
        <route edges="-E6 -E2 -E0"/>
    </vehicle>
    <vehicle id="veh_12" type="motorcycle" depart="304.27">
        <route edges="-E4 -E2 -E0"/>
    </vehicle>
    <vehicle id="veh_71" type="passenger" depart="308.42">
        <route edges="-E4 -E2 E3"/>
    </vehicle>
    <vehicle id="veh_97" type="motorcycle" depart="309.32">
        <route edges="-E2 E1"/>
    </vehicle>
    <vehicle id="veh_20" type="passenger" depart="313.88">
        <route edges="-E4 -E2 -E0"/>
    </vehicle>
    <vehicle id="veh_44" type="bus" depart="314.42">
        <route edges="E0 E2 E4"/>
    </vehicle>
    <vehicle id="veh_79" type="passenger" depart="318.24">
        <route edges="-E1 E2 E6"/>
    </vehicle>
    <vehicle id="veh_93" type="passenger" depart="333.66">
        <route edges="-E1 -E0"/>
    </vehicle>
    <vehicle id="veh_10" type="passenger" depart="335.47">
        <route edges="-E1 -E0"/>
    </vehicle>
    <vehicle id="veh_90" type="passenger" depart="335.69">
        <route edges="-E2 E1"/>
    </vehicle>
    <vehicle id="veh_84" type="passenger" depart="335.87">
        <route edges="E0 E3"/>
    </vehicle>
    <vehicle id="veh_60" type="passenger" depart="340.09">
        <route edges="-E6 E4"/>
    </vehicle>
    <vehicle id="veh_7" type="passenger" depart="342.76">
        <route edges="E0 E3"/>
    </vehicle>
    <vehicle id="veh_91" type="passenger" depart="343.58">
        <route edges="E2 E6"/>
    </vehicle>
    <vehicle id="veh_81" type="passenger" depart="349.02">
        <route edges="-E4 -E2 -E0"/>
    </vehicle>
    <vehicle id="veh_78" type="passenger" depart="353.84">
        <route edges="-E1 -E0"/>
    </vehicle>
    <vehicle id="veh_35" type="bus" depart="356.49">
        <route edges="E0 E3"/>
    </vehicle>
    <vehicle id="veh_30" type="passenger" depart="368.76">
        <route edges="E2 E5"/>
    </vehicle>
    <vehicle id="veh_37" type="passenger" depart="369.98">
        <route edges="E0 E2 E4"/>
    </vehicle>
    <vehicle id="veh_22" type="passenger" depart="390.15">
        <route edges="-E6 -E2 E3"/>
    </vehicle>
    <vehicle id="veh_66" type="passenger" depart="390.6">
        <route edges="-E6 -E2 E3"/>
    </vehicle>
    <vehicle id="veh_51" type="passenger" depart="398.44">
        <route edges="E0 E2 E4"/>
    </vehicle>
    <vehicle id="veh_40" type="passenger" depart="398.57">
        <route edges="-E1 E2 E6"/>
    </vehicle>
</routes>
