<?xml version='1.0' encoding='UTF-8'?>
<routes xmlns:xsi="http://www.w3.org/2001/XMLSchema-instance" xsi:noNamespaceSchemaLocation="http://sumo.dlr.de/xsd/routes_file.xsd">
    
    <vType id="IMPORTANT_CAR" vClass="vip" />
    <vType id="LEADING_CAR" vClass="authority" />
    
    <vehicle id="0" depart="0.00">
        <route edges="-E5 -E2" />
    </vehicle>
    <vehicle id="1" depart="1.00">
        <route edges="-E2 E0" />
    </vehicle>
    <vehicle id="2" depart="2.00">
        <route edges="-E5 E4" />
    </vehicle>
    <vehicle id="5" depart="5.00">
        <route edges="-E1 E3" />
    </vehicle>
    <vehicle id="7" depart="7.00">
        <route edges="-E5 -E2 E3" />
    </vehicle>
    <vehicle id="8" depart="8.00">
        <route edges="-E1 E3" />
    </vehicle>
    <vehicle id="9" depart="9.00">
        <route edges="-E6 -E2" />
    </vehicle>
    <vehicle id="10" depart="10.00">
        <route edges="-E6 E4" />
    </vehicle>
    <vehicle id="11" depart="11.00">
        <route edges="-E2 E0" />
    </vehicle>
    <vehicle id="14" depart="14.00">
        <route edges="-E6 -E2 E3" />
    </vehicle>
    <vehicle id="15" depart="15.00">
        <route edges="-E6 E4" />
    </vehicle>
    <vehicle id="16" depart="16.00">
        <route edges="-E4 E6" />
    </vehicle>
    <vehicle id="18" depart="18.00">
        <route edges="-E6 -E2 E3" />
    </vehicle>
    <vehicle id="19" depart="19.00">
        <route edges="-E6 -E2 E3" />
    </vehicle>
    <vehicle id="20" depart="20.00">
        <route edges="-E5 -E2" />
    </vehicle>
    <vehicle id="23" depart="23.00">
        <route edges="-E0 E1" />
    </vehicle>
    <vehicle id="24" depart="24.00">
        <route edges="-E5 -E2 E1" />
    </vehicle>
    <vehicle id="25" depart="25.00">
        <route edges="-E2 E0" />
    </vehicle>
    <vehicle id="27" depart="27.00">
        <route edges="-E5 -E2 E3" />
    </vehicle>
    <vehicle id="28" depart="28.00">
        <route edges="-E1 E2 E4" />
    </vehicle>
    <vehicle id="29" depart="29.00">
        <route edges="-E1 E2" />
    </vehicle>
    <vehicle id="30" depart="30.00">
        <route edges="E2 E4" />
    </vehicle>
    <vehicle id="32" depart="32.00">
        <route edges="-E6 E5" />
    </vehicle>
    <vehicle id="34" depart="34.00">
        <route edges="-E2 E1" />
    </vehicle>
    <vehicle id="35" depart="35.00">
        <route edges="-E1 E2 E6" />
    </vehicle>
    <vehicle id="38" depart="38.00">
        <route edges="E2" />
    </vehicle>
    <vehicle id="39" depart="39.00">
        <route edges="-E2 E0" />
    </vehicle>
    <vehicle id="40" depart="40.00">
        <route edges="-E4 -E2 E1" />
    </vehicle>
    <vehicle id="41" depart="41.00">
        <route edges="-E4 E6" />
    </vehicle>
    <vehicle id="42" depart="42.00">
        <route edges="-E3 E0" />
    </vehicle>
    <vehicle id="45" depart="45.00">
        <route edges="-E0 E2 E4" />
    </vehicle>
    <vehicle id="47" depart="47.00">
        <route edges="-E0 E2" />
    </vehicle>
    <vehicle id="49" depart="49.00">
        <route edges="E2 E5" />
    </vehicle>
    <vehicle id="50" depart="50.00">
        <route edges="-E0 E2 E4" />
    </vehicle>
    <vehicle id="51" depart="51.00">
        <route edges="-E5 -E2 E3" />
    </vehicle>
    <vehicle id="53" depart="53.00">
        <route edges="-E0 E2" />
    </vehicle>
    <vehicle id="54" depart="54.00">
        <route edges="-E3 E2 E6" />
    </vehicle>
    <vehicle id="56" depart="56.00">
        <route edges="-E4 -E2 E0" />
    </vehicle>
    <vehicle id="57" depart="57.00">
        <route edges="E2 E5" />
    </vehicle>
    <vehicle id="59" depart="59.00">
        <route edges="-E4 -E2 E0" />
    </vehicle>
    <vehicle id="60" depart="60.00">
        <route edges="-E6 -E2 E3" />
    </vehicle>
    <vehicle id="61" depart="61.00">
        <route edges="-E6 -E2 E3" />
    </vehicle>
    <vehicle id="62" depart="62.00">
        <route edges="-E0 E1" />
    </vehicle>
    <vehicle id="63" depart="63.00">
        <route edges="-E0 E2 E6" />
    </vehicle>
    <vehicle id="64" depart="64.00">
        <route edges="E2 E5" />
    </vehicle>
    <vehicle id="65" depart="65.00">
        <route edges="-E2" />
    </vehicle>
    <vehicle id="66" depart="66.00">
        <route edges="E2 E6" />
    </vehicle>
    <vehicle id="67" depart="67.00">
        <route edges="-E0 E2" />
    </vehicle>
    <vehicle id="68" depart="68.00">
        <route edges="-E0 E2 E5" />
    </vehicle>
    <vehicle id="69" depart="69.00">
        <route edges="-E6 -E2 E0" />
    </vehicle>
    <vehicle id="72" depart="72.00">
        <route edges="-E3 E0" />
    </vehicle>
    <vehicle id="75" depart="75.00">
        <route edges="E2 E4" />
    </vehicle>
    <vehicle id="78" depart="78.00">
        <route edges="-E2 E3" />
    </vehicle>
    <vehicle id="79" depart="79.00">
        <route edges="-E1 E0" />
    </vehicle>
    <vehicle id="80" depart="80.00">
        <route edges="-E0 E2 E4" />
    </vehicle>
    <vehicle id="81" depart="81.00">
        <route edges="-E1 E2 E6" />
    </vehicle>
    <vehicle id="82" depart="82.00">
        <route edges="-E6 -E2" />
    </vehicle>
    <vehicle id="83" depart="83.00">
        <route edges="-E1 E2 E4" />
    </vehicle>
    <vehicle id="84" depart="84.00">
        <route edges="-E1 E0" />
    </vehicle>
    <vehicle id="86" depart="86.00">
        <route edges="-E3 E2 E5" />
    </vehicle>
    <vehicle id="87" depart="87.00">
        <route edges="-E6 -E2 E0" />
    </vehicle>
    <vehicle id="88" depart="88.00">
        <route edges="-E0 E2" />
    </vehicle>
    <vehicle id="89" depart="89.00">
        <route edges="-E3 E2" />
    </vehicle>
    <vehicle id="90" depart="90.00">
        <route edges="-E5 E4" />
    </vehicle>
    <vehicle id="92" depart="92.00">
        <route edges="-E3 E1" />
    </vehicle>
    <vehicle id="93" depart="93.00">
        <route edges="-E6 -E2 E0" />
    </vehicle>
    <vehicle id="94" depart="94.00">
        <route edges="-E1 E2" />
    </vehicle>
    <vehicle id="95" depart="95.00">
        <route edges="-E3 E1" />
    </vehicle>
    <vehicle id="96" depart="96.00">
        <route edges="-E1 E2 E6" />
    </vehicle>
    <vehicle id="97" depart="97.00">
        <route edges="-E3 E2 E5" />
    </vehicle>
    <vehicle id="98" depart="98.00">
        <route edges="-E4 -E2" />
    </vehicle>
    <vehicle id="99" depart="99.00">
        <route edges="E2 E5" />
    </vehicle>
    <vehicle id="100" depart="100.00">
        <route edges="E2 E6" />
    </vehicle>
    <vehicle id="101" depart="101.00">
        <route edges="-E6 -E2 E0" />
    </vehicle>
    <vehicle id="102" depart="102.00">
        <route edges="-E3 E0" />
    </vehicle>
    <vehicle id="104" depart="104.00">
        <route edges="-E3 E2 E6" />
    </vehicle>
    <vehicle id="106" depart="106.00">
        <route edges="-E3 E2" />
    </vehicle>
    <vehicle id="107" depart="107.00">
        <route edges="E2 E6" />
    </vehicle>
    <vehicle id="112" depart="112.00">
        <route edges="-E0 E3" />
    </vehicle>
    <vehicle id="113" depart="113.00">
        <route edges="-E4 E5" />
    </vehicle>
    <vehicle id="114" depart="114.00">
        <route edges="-E1 E2 E6" />
    </vehicle>
    <vehicle id="119" depart="119.00">
        <route edges="-E4 -E2 E3" />
    </vehicle>
    <vehicle id="121" depart="121.00">
        <route edges="-E4 E6" />
    </vehicle>
    <vehicle id="122" depart="122.00">
        <route edges="-E1 E2 E4" />
    </vehicle>
    <vehicle id="123" depart="123.00">
        <route edges="-E1 E2" />
    </vehicle>
    <vehicle id="124" depart="124.00">
        <route edges="-E5 -E2 E1" />
    </vehicle>
    <vehicle id="126" depart="126.00">
        <route edges="-E0 E2" />
    </vehicle>
    <vehicle id="127" depart="127.00">
        <route edges="E2 E6" />
    </vehicle>
    <vehicle id="130" depart="130.00">
        <route edges="E2 E6" />
    </vehicle>
    <vehicle id="131" depart="131.00">
        <route edges="-E2 E0" />
    </vehicle>
    <vehicle id="132" depart="132.00">
        <route edges="-E6 E4" />
    </vehicle>
    <vehicle id="133" depart="133.00">
        <route edges="-E4 E6" />
    </vehicle>
    <vehicle id="134" depart="134.00">
        <route edges="-E5 -E2" />
    </vehicle>
    <vehicle id="135" depart="135.00">
        <route edges="-E6 -E2 E1" />
    </vehicle>
    <vehicle id="136" depart="136.00">
        <route edges="-E5 E6" />
    </vehicle>
    <vehicle id="138" depart="138.00">
        <route edges="-E0 E3" />
    </vehicle>
    <vehicle id="139" depart="139.00">
        <route edges="-E2 E3" />
    </vehicle>
    <vehicle id="140" depart="140.00">
        <route edges="-E5 -E2 E0" />
    </vehicle>
    <vehicle id="141" depart="141.00">
        <route edges="-E5 -E2 E1" />
    </vehicle>
    <vehicle id="142" depart="142.00">
        <route edges="-E3 E2 E6" />
    </vehicle>
    <vehicle id="143" depart="143.00">
        <route edges="-E6 -E2" />
    </vehicle>
    <vehicle id="144" depart="144.00">
        <route edges="-E3 E1" />
    </vehicle>
    <vehicle id="145" depart="145.00">
        <route edges="-E0 E2 E5" />
    </vehicle>
    <vehicle id="146" depart="146.00">
        <route edges="-E5 -E2 E1" />
    </vehicle>
    <vehicle id="147" depart="147.00">
        <route edges="-E5 -E2 E3" />
    </vehicle>
    <vehicle id="149" depart="149.00">
        <route edges="-E0 E2 E6" />
    </vehicle>
    <trip id="t_0" type="LEADING_CAR" depart="150.00" color="0,224,255" from="-E0" to="E6" via="E2" />
    <vehicle id="151" depart="151.00">
        <route edges="-E6 -E2 E3" />
    </vehicle>
    <vehicle id="152" depart="152.00">
        <route edges="-E1 E0" />
    </vehicle>
    <vehicle id="154" depart="154.00">
        <route edges="-E6 E5" />
    </vehicle>
    <vehicle id="159" depart="159.00">
        <route edges="-E1 E2 E6" />
    </vehicle>
    <vehicle id="164" depart="164.00">
        <route edges="-E6 E5" />
    </vehicle>
    <vehicle id="165" depart="165.00">
        <route edges="-E6 -E2 E1" />
    </vehicle>
    <vehicle id="166" depart="166.00">
        <route edges="-E6 -E2" />
    </vehicle>
    <vehicle id="167" depart="167.00">
        <route edges="-E6 E5" />
    </vehicle>
    <vehicle id="168" depart="168.00">
        <route edges="-E1 E2 E5" />
    </vehicle>
    <vehicle id="169" depart="169.00">
        <route edges="-E3 E1" />
    </vehicle>
    <vehicle id="170" depart="170.00">
        <route edges="-E6 -E2 E0" />
    </vehicle>
    <vehicle id="180" depart="180.00">
        <route edges="-E5 -E2 E1" />
    </vehicle>
    <vehicle id="181" depart="181.00">
        <route edges="-E4 -E2 E3" />
    </vehicle>
    <vehicle id="186" depart="186.00">
        <route edges="-E5 E4" />
    </vehicle>
    <vehicle id="187" depart="187.00">
        <route edges="-E2" />
    </vehicle>
    <vehicle id="188" depart="188.00">
        <route edges="-E5 -E2 E1" />
    </vehicle>
    <vehicle id="190" depart="190.00">
        <route edges="-E5 -E2 E1" />
    </vehicle>
    <vehicle id="192" depart="192.00">
        <route edges="-E3 E1" />
    </vehicle>
    <vehicle id="193" depart="193.00">
        <route edges="-E1 E2" />
    </vehicle>
    <vehicle id="194" depart="194.00">
        <route edges="E2 E4" />
    </vehicle>
    <vehicle id="196" depart="196.00">
        <route edges="-E2 E3" />
    </vehicle>
    <vehicle id="200" depart="200.00">
        <route edges="-E3 E0" />
    </vehicle>
    <trip id="t_1" type="IMPORTANT_CAR" depart="200.00" color="0,255,29" from="-E0" to="E6" via="E2" />
    <vehicle id="201" depart="201.00">
        <route edges="-E3 E2 E6" />
    </vehicle>
    <vehicle id="202" depart="202.00">
        <route edges="-E6 -E2 E0" />
    </vehicle>
    <vehicle id="204" depart="204.00">
        <route edges="-E5 -E2 E1" />
    </vehicle>
    <vehicle id="205" depart="205.00">
        <route edges="-E6 E5" />
    </vehicle>
    <vehicle id="206" depart="206.00">
        <route edges="-E5 -E2 E0" />
    </vehicle>
    <vehicle id="208" depart="208.00">
        <route edges="-E1 E2" />
    </vehicle>
    <vehicle id="209" depart="209.00">
        <route edges="-E6 -E2" />
    </vehicle>
    <vehicle id="210" depart="210.00">
        <route edges="-E3 E2 E4" />
    </vehicle>
    <vehicle id="211" depart="211.00">
        <route edges="-E1 E2 E4" />
    </vehicle>
    <vehicle id="212" depart="212.00">
        <route edges="-E3 E0" />
    </vehicle>
    <vehicle id="213" depart="213.00">
        <route edges="-E5 -E2" />
    </vehicle>
    <vehicle id="214" depart="214.00">
        <route edges="-E6 E5" />
    </vehicle>
    <vehicle id="216" depart="216.00">
        <route edges="-E1 E2 E6" />
    </vehicle>
    <vehicle id="217" depart="217.00">
        <route edges="-E4 -E2" />
    </vehicle>
    <vehicle id="218" depart="218.00">
        <route edges="-E1 E2 E5" />
    </vehicle>
    <vehicle id="219" depart="219.00">
        <route edges="-E3 E2 E5" />
    </vehicle>
    <vehicle id="220" depart="220.00">
        <route edges="-E5 E6" />
    </vehicle>
    <vehicle id="221" depart="221.00">
        <route edges="-E4 E6" />
    </vehicle>
    <vehicle id="223" depart="223.00">
        <route edges="-E5 -E2 E3" />
    </vehicle>
    <vehicle id="224" depart="224.00">
        <route edges="-E6 -E2 E3" />
    </vehicle>
    <vehicle id="225" depart="225.00">
        <route edges="E2 E4" />
    </vehicle>
    <vehicle id="226" depart="226.00">
        <route edges="-E3 E1" />
    </vehicle>
    <vehicle id="227" depart="227.00">
        <route edges="-E1 E2 E4" />
    </vehicle>
    <vehicle id="228" depart="228.00">
        <route edges="-E6 -E2 E3" />
    </vehicle>
    <vehicle id="229" depart="229.00">
        <route edges="-E5 -E2 E1" />
    </vehicle>
    <vehicle id="231" depart="231.00">
        <route edges="-E2 E1" />
    </vehicle>
    <vehicle id="232" depart="232.00">
        <route edges="-E4 -E2 E0" />
    </vehicle>
    <vehicle id="233" depart="233.00">
        <route edges="-E1 E2 E4" />
    </vehicle>
    <vehicle id="234" depart="234.00">
        <route edges="-E5 -E2" />
    </vehicle>
    <vehicle id="236" depart="236.00">
        <route edges="-E3 E0" />
    </vehicle>
    <vehicle id="237" depart="237.00">
        <route edges="-E3 E2 E6" />
    </vehicle>
    <vehicle id="239" depart="239.00">
        <route edges="-E6 E5" />
    </vehicle>
    <vehicle id="243" depart="243.00">
        <route edges="-E3 E2 E4" />
    </vehicle>
    <vehicle id="244" depart="244.00">
        <route edges="-E4 -E2 E3" />
    </vehicle>
    <vehicle id="245" depart="245.00">
        <route edges="-E1 E0" />
    </vehicle>
    <vehicle id="248" depart="248.00">
        <route edges="-E3 E0" />
    </vehicle>
    <vehicle id="249" depart="249.00">
        <route edges="-E3 E0" />
    </vehicle>
    <vehicle id="162" depart="250.00">
        <route edges="-E0 E2 E4" />
    </vehicle>
    <vehicle id="250" depart="250.00">
        <route edges="-E4 -E2" />
    </vehicle>
    <vehicle id="253" depart="253.00">
        <route edges="-E1 E2" />
    </vehicle>
    <vehicle id="257" depart="257.00">
        <route edges="-E6 E5" />
    </vehicle>
    <vehicle id="258" depart="258.00">
        <route edges="-E2" />
    </vehicle>
    <vehicle id="265" depart="265.00">
        <route edges="-E1 E2 E4" />
    </vehicle>
    <vehicle id="266" depart="266.00">
        <route edges="-E4 -E2 E0" />
    </vehicle>
    <vehicle id="179" depart="267.00">
        <route edges="-E0 E2" />
    </vehicle>
    <vehicle id="268" depart="268.00">
        <route edges="-E1 E3" />
    </vehicle>
    <vehicle id="269" depart="269.00">
        <route edges="-E5 -E2" />
    </vehicle>
    <vehicle id="184" depart="272.00">
        <route edges="-E0 E2 E6" />
    </vehicle>
    <vehicle id="273" depart="273.00">
        <route edges="E2" />
    </vehicle>
    <vehicle id="274" depart="274.00">
        <route edges="-E5 -E2" />
    </vehicle>
    <vehicle id="275" depart="275.00">
        <route edges="-E5 E4" />
    </vehicle>
    <vehicle id="277" depart="277.00">
        <route edges="-E6 -E2 E3" />
    </vehicle>
    <vehicle id="279" depart="279.00">
        <route edges="-E6 -E2 E1" />
    </vehicle>
    <vehicle id="280" depart="280.00">
        <route edges="-E3 E1" />
    </vehicle>
    <vehicle id="281" depart="281.00">
        <route edges="-E4 -E2 E1" />
    </vehicle>
    <vehicle id="282" depart="282.00">
        <route edges="-E6 E5" />
    </vehicle>
    <vehicle id="197" depart="285.00">
        <route edges="-E0 E1" />
    </vehicle>
    <vehicle id="286" depart="286.00">
        <route edges="-E5 E6" />
    </vehicle>
    <vehicle id="289" depart="289.00">
        <route edges="-E3 E2 E4" />
    </vehicle>
    <vehicle id="203" depart="291.00">
        <route edges="-E0 E3" />
    </vehicle>
    <vehicle id="291" depart="291.00">
        <route edges="-E6 -E2" />
    </vehicle>
    <vehicle id="295" depart="295.00">
        <route edges="-E6 -E2 E0" />
    </vehicle>
    <vehicle id="296" depart="296.00">
        <route edges="-E1 E2 E5" />
    </vehicle>
    <vehicle id="298" depart="298.00">
        <route edges="-E5 -E2 E1" />
    </vehicle>
    <vehicle id="301" depart="301.00">
        <route edges="-E3 E2 E5" />
    </vehicle>
    <vehicle id="302" depart="302.00">
        <route edges="-E5 E4" />
    </vehicle>
    <vehicle id="215" depart="303.00">
        <route edges="-E0 E2" />
    </vehicle>
    <vehicle id="303" depart="303.00">
        <route edges="-E3 E2 E5" />
    </vehicle>
    <vehicle id="305" depart="305.00">
        <route edges="-E5 -E2 E1" />
    </vehicle>
    <vehicle id="308" depart="308.00">
        <route edges="-E5 -E2 E1" />
    </vehicle>
    <vehicle id="309" depart="309.00">
        <route edges="-E5 -E2 E1" />
    </vehicle>
    <vehicle id="310" depart="310.00">
        <route edges="-E2" />
    </vehicle>
    <vehicle id="312" depart="312.00">
        <route edges="-E4 E5" />
    </vehicle>
    <vehicle id="313" depart="313.00">
        <route edges="-E1 E0" />
    </vehicle>
    <vehicle id="314" depart="314.00">
        <route edges="-E3 E2 E4" />
    </vehicle>
    <vehicle id="316" depart="316.00">
        <route edges="-E2" />
    </vehicle>
    <vehicle id="317" depart="317.00">
        <route edges="-E1 E0" />
    </vehicle>
    <vehicle id="230" depart="318.00">
        <route edges="-E0 E1" />
    </vehicle>
    <vehicle id="319" depart="319.00">
        <route edges="-E4 -E2 E1" />
    </vehicle>
    <vehicle id="321" depart="321.00">
        <route edges="-E5 -E2 E0" />
    </vehicle>
    <vehicle id="323" depart="323.00">
        <route edges="-E6 -E2 E3" />
    </vehicle>
    <vehicle id="324" depart="324.00">
        <route edges="-E3 E2" />
    </vehicle>
    <vehicle id="326" depart="326.00">
        <route edges="E2" />
    </vehicle>
    <vehicle id="330" depart="330.00">
        <route edges="-E4 -E2 E1" />
    </vehicle>
    <vehicle id="332" depart="332.00">
        <route edges="-E6 -E2 E3" />
    </vehicle>
    <vehicle id="333" depart="333.00">
        <route edges="-E6 -E2 E0" />
    </vehicle>
    <vehicle id="335" depart="335.00">
        <route edges="-E3 E2 E5" />
    </vehicle>
    <vehicle id="337" depart="337.00">
        <route edges="-E4 -E2 E3" />
    </vehicle>
    <vehicle id="338" depart="338.00">
        <route edges="-E5 E6" />
    </vehicle>
    <vehicle id="339" depart="339.00">
        <route edges="-E1 E0" />
    </vehicle>
    <vehicle id="252" depart="340.00">
        <route edges="-E0 E2 E4" />
    </vehicle>
    <vehicle id="340" depart="340.00">
        <route edges="-E5 -E2 E0" />
    </vehicle>
    <vehicle id="254" depart="342.00">
        <route edges="-E0 E2" />
    </vehicle>
    <vehicle id="343" depart="343.00">
        <route edges="-E4 -E2 E1" />
    </vehicle>
    <vehicle id="344" depart="344.00">
        <route edges="-E1 E2 E4" />
    </vehicle>
    <vehicle id="346" depart="346.00">
        <route edges="-E5 E6" />
    </vehicle>
    <vehicle id="259" depart="347.00">
        <route edges="-E0 E3" />
    </vehicle>
    <vehicle id="347" depart="347.00">
        <route edges="-E6 E4" />
    </vehicle>
    <vehicle id="348" depart="348.00">
        <route edges="-E5 E6" />
    </vehicle>
    <vehicle id="350" depart="350.00">
        <route edges="-E5 E6" />
    </vehicle>
    <vehicle id="351" depart="351.00">
        <route edges="-E6 -E2" />
    </vehicle>
    <vehicle id="353" depart="353.00">
        <route edges="-E5 -E2 E3" />
    </vehicle>
    <vehicle id="354" depart="354.00">
        <route edges="-E2" />
    </vehicle>
    <vehicle id="355" depart="355.00">
        <route edges="-E5 E4" />
    </vehicle>
    <vehicle id="359" depart="359.00">
        <route edges="-E2 E1" />
    </vehicle>
    <vehicle id="361" depart="361.00">
        <route edges="-E6 -E2 E3" />
    </vehicle>
    <vehicle id="362" depart="362.00">
        <route edges="E2 E6" />
    </vehicle>
    <vehicle id="363" depart="363.00">
        <route edges="-E5 -E2 E1" />
    </vehicle>
    <vehicle id="276" depart="364.00">
        <route edges="-E0 E2 E5" />
    </vehicle>
    <vehicle id="365" depart="365.00">
        <route edges="-E3 E2 E4" />
    </vehicle>
    <vehicle id="278" depart="366.00">
        <route edges="-E0 E2 E6" />
    </vehicle>
    <vehicle id="369" depart="369.00">
        <route edges="-E2 E1" />
    </vehicle>
    <vehicle id="283" depart="371.00">
        <route edges="-E0 E2 E6" />
    </vehicle>
    <vehicle id="373" depart="373.00">
        <route edges="-E6 -E2 E3" />
    </vehicle>
    <vehicle id="374" depart="374.00">
        <route edges="-E3 E1" />
    </vehicle>
    <vehicle id="377" depart="377.00">
        <route edges="E2 E4" />
    </vehicle>
    <vehicle id="380" depart="380.00">
        <route edges="-E6 E4" />
    </vehicle>
    <vehicle id="381" depart="381.00">
        <route edges="-E6 -E2 E0" />
    </vehicle>
    <vehicle id="382" depart="382.00">
        <route edges="-E4 E6" />
    </vehicle>
    <vehicle id="383" depart="383.00">
        <route edges="-E3 E2 E4" />
    </vehicle>
    <vehicle id="385" depart="385.00">
        <route edges="-E4 -E2 E0" />
    </vehicle>
    <vehicle id="386" depart="386.00">
        <route edges="-E1 E3" />
    </vehicle>
    <vehicle id="299" depart="387.00">
        <route edges="-E0 E2 E6" />
    </vehicle>
    <vehicle id="387" depart="387.00">
        <route edges="-E4 -E2" />
    </vehicle>
    <vehicle id="300" depart="388.00">
        <route edges="-E0 E2 E4" />
    </vehicle>
    <vehicle id="388" depart="388.00">
        <route edges="E2 E6" />
    </vehicle>
    <vehicle id="391" depart="391.00">
        <route edges="-E5 -E2 E3" />
    </vehicle>
    <vehicle id="396" depart="396.00">
        <route edges="E2 E5" />
    </vehicle>
    <vehicle id="398" depart="398.00">
        <route edges="-E3 E2 E6" />
    </vehicle>
    <vehicle id="399" depart="399.00">
        <route edges="-E4 E5" />
    </vehicle>
<vehicle id="328" depart="416.00">
        <route edges="-E0 E2 E4" />
    </vehicle>
    <vehicle id="342" depart="430.00">
        <route edges="-E0 E2" />
    </vehicle>
    <vehicle id="358" depart="446.00">
        <route edges="-E0 E2" />
    </vehicle>
    <vehicle id="360" depart="448.00">
        <route edges="-E0 E2 E6" />
    </vehicle>
    <vehicle id="364" depart="452.00">
        <route edges="-E0 E2 E5" />
    </vehicle>
    <vehicle id="384" depart="472.00">
        <route edges="-E0 E2 E6" />
    </vehicle>
    </routes>