<?xml version="1.0" encoding="UTF-8"?>

<!-- generated on 2025-12-22T10:06:28.727933+07:00 by Eclipse SUMO duarouter 1.25.0
<duarouterConfiguration xmlns:xsi="http://www.w3.org/2001/XMLSchema-instance" xsi:noNamespaceSchemaLocation="http://sumo.dlr.de/xsd/duarouterConfiguration.xsd">

    <input>
        <net-file value="C:\Phi\Work\SimulationData\ImportantVehicles\network.net.xml"/>
        <route-files value="trips.trips.xml"/>
    </input>

    <output>
        <output-file value="trips.trips.xml.tmp"/>
        <alternatives-output value="NUL"/>
        <write-trips value="true"/>
    </output>

    <time>
        <begin value="0"/>
        <end value="400.0"/>
    </time>

    <report>
        <no-warnings value="true"/>
        <ignore-errors value="true"/>
        <no-step-log value="true"/>
    </report>

</duarouterConfiguration>
-->

<routes xmlns:xsi="http://www.w3.org/2001/XMLSchema-instance" xsi:noNamespaceSchemaLocation="http://sumo.dlr.de/xsd/routes_file.xsd">
    <trip id="0" depart="0.00" from="-E5" to="-E2"/>
    <trip id="1" depart="1.00" from="-E2" to="E0"/>
    <trip id="2" depart="2.00" from="-E5" to="E4"/>
    <trip id="5" depart="5.00" from="-E1" to="E3"/>
    <trip id="7" depart="7.00" from="-E5" to="E3"/>
    <trip id="8" depart="8.00" from="-E1" to="E3"/>
    <trip id="9" depart="9.00" from="-E6" to="-E2"/>
    <trip id="10" depart="10.00" from="-E6" to="E4"/>
    <trip id="11" depart="11.00" from="-E2" to="E0"/>
    <trip id="14" depart="14.00" from="-E6" to="E3"/>
    <trip id="15" depart="15.00" from="-E6" to="E4"/>
    <trip id="16" depart="16.00" from="-E4" to="E6"/>
    <trip id="18" depart="18.00" from="-E6" to="E3"/>
    <trip id="19" depart="19.00" from="-E6" to="E3"/>
    <trip id="20" depart="20.00" from="-E5" to="-E2"/>
    <trip id="23" depart="23.00" from="-E0" to="E1"/>
    <trip id="24" depart="24.00" from="-E5" to="E1"/>
    <trip id="25" depart="25.00" from="-E2" to="E0"/>
    <trip id="27" depart="27.00" from="-E5" to="E3"/>
    <trip id="28" depart="28.00" from="-E1" to="E4"/>
    <trip id="29" depart="29.00" from="-E1" to="E2"/>
    <trip id="30" depart="30.00" from="E2" to="E4"/>
    <trip id="32" depart="32.00" from="-E6" to="E5"/>
    <trip id="34" depart="34.00" from="-E2" to="E1"/>
    <trip id="35" depart="35.00" from="-E1" to="E6"/>
    <trip id="38" depart="38.00" from="E2" to="E2"/>
    <trip id="39" depart="39.00" from="-E2" to="E0"/>
    <trip id="40" depart="40.00" from="-E4" to="E1"/>
    <trip id="41" depart="41.00" from="-E4" to="E6"/>
    <trip id="42" depart="42.00" from="-E3" to="E0"/>
    <trip id="45" depart="45.00" from="-E0" to="E4"/>
    <trip id="47" depart="47.00" from="-E0" to="E2"/>
    <trip id="49" depart="49.00" from="E2" to="E5"/>
    <trip id="50" depart="50.00" from="-E0" to="E4"/>
    <trip id="51" depart="51.00" from="-E5" to="E3"/>
    <trip id="53" depart="53.00" from="-E0" to="E2"/>
    <trip id="54" depart="54.00" from="-E3" to="E6"/>
    <trip id="56" depart="56.00" from="-E4" to="E0"/>
    <trip id="57" depart="57.00" from="E2" to="E5"/>
    <trip id="59" depart="59.00" from="-E4" to="E0"/>
    <trip id="60" depart="60.00" from="-E6" to="E3"/>
    <trip id="61" depart="61.00" from="-E6" to="E3"/>
    <trip id="62" depart="62.00" from="-E0" to="E1"/>
    <trip id="63" depart="63.00" from="-E0" to="E6"/>
    <trip id="64" depart="64.00" from="E2" to="E5"/>
    <trip id="65" depart="65.00" from="-E2" to="-E2"/>
    <trip id="66" depart="66.00" from="E2" to="E6"/>
    <trip id="67" depart="67.00" from="-E0" to="E2"/>
    <trip id="68" depart="68.00" from="-E0" to="E5"/>
    <trip id="69" depart="69.00" from="-E6" to="E0"/>
    <trip id="72" depart="72.00" from="-E3" to="E0"/>
    <trip id="75" depart="75.00" from="E2" to="E4"/>
    <trip id="78" depart="78.00" from="-E2" to="E3"/>
    <trip id="79" depart="79.00" from="-E1" to="E0"/>
    <trip id="80" depart="80.00" from="-E0" to="E4"/>
    <trip id="81" depart="81.00" from="-E1" to="E6"/>
    <trip id="82" depart="82.00" from="-E6" to="-E2"/>
    <trip id="83" depart="83.00" from="-E1" to="E4"/>
    <trip id="84" depart="84.00" from="-E1" to="E0"/>
    <trip id="86" depart="86.00" from="-E3" to="E5"/>
    <trip id="87" depart="87.00" from="-E6" to="E0"/>
    <trip id="88" depart="88.00" from="-E0" to="E2"/>
    <trip id="89" depart="89.00" from="-E3" to="E2"/>
    <trip id="90" depart="90.00" from="-E5" to="E4"/>
    <trip id="92" depart="92.00" from="-E3" to="E1"/>
    <trip id="93" depart="93.00" from="-E6" to="E0"/>
    <trip id="94" depart="94.00" from="-E1" to="E2"/>
    <trip id="95" depart="95.00" from="-E3" to="E1"/>
    <trip id="96" depart="96.00" from="-E1" to="E6"/>
    <trip id="97" depart="97.00" from="-E3" to="E5"/>
    <trip id="98" depart="98.00" from="-E4" to="-E2"/>
    <trip id="99" depart="99.00" from="E2" to="E5"/>
    <trip id="100" depart="100.00" from="E2" to="E6"/>
    <trip id="101" depart="101.00" from="-E6" to="E0"/>
    <trip id="102" depart="102.00" from="-E3" to="E0"/>
    <trip id="104" depart="104.00" from="-E3" to="E6"/>
    <trip id="106" depart="106.00" from="-E3" to="E2"/>
    <trip id="107" depart="107.00" from="E2" to="E6"/>
    <trip id="112" depart="112.00" from="-E0" to="E3"/>
    <trip id="113" depart="113.00" from="-E4" to="E5"/>
    <trip id="114" depart="114.00" from="-E1" to="E6"/>
    <trip id="119" depart="119.00" from="-E4" to="E3"/>
    <trip id="121" depart="121.00" from="-E4" to="E6"/>
    <trip id="122" depart="122.00" from="-E1" to="E4"/>
    <trip id="123" depart="123.00" from="-E1" to="E2"/>
    <trip id="124" depart="124.00" from="-E5" to="E1"/>
    <trip id="126" depart="126.00" from="-E0" to="E2"/>
    <trip id="127" depart="127.00" from="E2" to="E6"/>
    <trip id="130" depart="130.00" from="E2" to="E6"/>
    <trip id="131" depart="131.00" from="-E2" to="E0"/>
    <trip id="132" depart="132.00" from="-E6" to="E4"/>
    <trip id="133" depart="133.00" from="-E4" to="E6"/>
    <trip id="134" depart="134.00" from="-E5" to="-E2"/>
    <trip id="135" depart="135.00" from="-E6" to="E1"/>
    <trip id="136" depart="136.00" from="-E5" to="E6"/>
    <trip id="138" depart="138.00" from="-E0" to="E3"/>
    <trip id="139" depart="139.00" from="-E2" to="E3"/>
    <trip id="140" depart="140.00" from="-E5" to="E0"/>
    <trip id="141" depart="141.00" from="-E5" to="E1"/>
    <trip id="142" depart="142.00" from="-E3" to="E6"/>
    <trip id="143" depart="143.00" from="-E6" to="-E2"/>
    <trip id="144" depart="144.00" from="-E3" to="E1"/>
    <trip id="145" depart="145.00" from="-E0" to="E5"/>
    <trip id="146" depart="146.00" from="-E5" to="E1"/>
    <trip id="147" depart="147.00" from="-E5" to="E3"/>
    <trip id="149" depart="149.00" from="-E0" to="E6"/>
    <trip id="151" depart="151.00" from="-E6" to="E3"/>
    <trip id="152" depart="152.00" from="-E1" to="E0"/>
    <trip id="154" depart="154.00" from="-E6" to="E5"/>
    <trip id="159" depart="159.00" from="-E1" to="E6"/>
    <trip id="162" depart="162.00" from="-E0" to="E4"/>
    <trip id="164" depart="164.00" from="-E6" to="E5"/>
    <trip id="165" depart="165.00" from="-E6" to="E1"/>
    <trip id="166" depart="166.00" from="-E6" to="-E2"/>
    <trip id="167" depart="167.00" from="-E6" to="E5"/>
    <trip id="168" depart="168.00" from="-E1" to="E5"/>
    <trip id="169" depart="169.00" from="-E3" to="E1"/>
    <trip id="170" depart="170.00" from="-E6" to="E0"/>
    <trip id="179" depart="179.00" from="-E0" to="E2"/>
    <trip id="180" depart="180.00" from="-E5" to="E1"/>
    <trip id="181" depart="181.00" from="-E4" to="E3"/>
    <trip id="184" depart="184.00" from="-E0" to="E6"/>
    <trip id="186" depart="186.00" from="-E5" to="E4"/>
    <trip id="187" depart="187.00" from="-E2" to="-E2"/>
    <trip id="188" depart="188.00" from="-E5" to="E1"/>
    <trip id="190" depart="190.00" from="-E5" to="E1"/>
    <trip id="192" depart="192.00" from="-E3" to="E1"/>
    <trip id="193" depart="193.00" from="-E1" to="E2"/>
    <trip id="194" depart="194.00" from="E2" to="E4"/>
    <trip id="196" depart="196.00" from="-E2" to="E3"/>
    <trip id="197" depart="197.00" from="-E0" to="E1"/>
    <trip id="200" depart="200.00" from="-E3" to="E0"/>
    <trip id="201" depart="201.00" from="-E3" to="E6"/>
    <trip id="202" depart="202.00" from="-E6" to="E0"/>
    <trip id="203" depart="203.00" from="-E0" to="E3"/>
    <trip id="204" depart="204.00" from="-E5" to="E1"/>
    <trip id="205" depart="205.00" from="-E6" to="E5"/>
    <trip id="206" depart="206.00" from="-E5" to="E0"/>
    <trip id="208" depart="208.00" from="-E1" to="E2"/>
    <trip id="209" depart="209.00" from="-E6" to="-E2"/>
    <trip id="210" depart="210.00" from="-E3" to="E4"/>
    <trip id="211" depart="211.00" from="-E1" to="E4"/>
    <trip id="212" depart="212.00" from="-E3" to="E0"/>
    <trip id="213" depart="213.00" from="-E5" to="-E2"/>
    <trip id="214" depart="214.00" from="-E6" to="E5"/>
    <trip id="215" depart="215.00" from="-E0" to="E2"/>
    <trip id="216" depart="216.00" from="-E1" to="E6"/>
    <trip id="217" depart="217.00" from="-E4" to="-E2"/>
    <trip id="218" depart="218.00" from="-E1" to="E5"/>
    <trip id="219" depart="219.00" from="-E3" to="E5"/>
    <trip id="220" depart="220.00" from="-E5" to="E6"/>
    <trip id="221" depart="221.00" from="-E4" to="E6"/>
    <trip id="223" depart="223.00" from="-E5" to="E3"/>
    <trip id="224" depart="224.00" from="-E6" to="E3"/>
    <trip id="225" depart="225.00" from="E2" to="E4"/>
    <trip id="226" depart="226.00" from="-E3" to="E1"/>
    <trip id="227" depart="227.00" from="-E1" to="E4"/>
    <trip id="228" depart="228.00" from="-E6" to="E3"/>
    <trip id="229" depart="229.00" from="-E5" to="E1"/>
    <trip id="230" depart="230.00" from="-E0" to="E1"/>
    <trip id="231" depart="231.00" from="-E2" to="E1"/>
    <trip id="232" depart="232.00" from="-E4" to="E0"/>
    <trip id="233" depart="233.00" from="-E1" to="E4"/>
    <trip id="234" depart="234.00" from="-E5" to="-E2"/>
    <trip id="236" depart="236.00" from="-E3" to="E0"/>
    <trip id="237" depart="237.00" from="-E3" to="E6"/>
    <trip id="239" depart="239.00" from="-E6" to="E5"/>
    <trip id="243" depart="243.00" from="-E3" to="E4"/>
    <trip id="244" depart="244.00" from="-E4" to="E3"/>
    <trip id="245" depart="245.00" from="-E1" to="E0"/>
    <trip id="248" depart="248.00" from="-E3" to="E0"/>
    <trip id="249" depart="249.00" from="-E3" to="E0"/>
    <trip id="250" depart="250.00" from="-E4" to="-E2"/>
    <trip id="252" depart="252.00" from="-E0" to="E4"/>
    <trip id="253" depart="253.00" from="-E1" to="E2"/>
    <trip id="254" depart="254.00" from="-E0" to="E2"/>
    <trip id="257" depart="257.00" from="-E6" to="E5"/>
    <trip id="258" depart="258.00" from="-E2" to="-E2"/>
    <trip id="259" depart="259.00" from="-E0" to="E3"/>
    <trip id="265" depart="265.00" from="-E1" to="E4"/>
    <trip id="266" depart="266.00" from="-E4" to="E0"/>
    <trip id="268" depart="268.00" from="-E1" to="E3"/>
    <trip id="269" depart="269.00" from="-E5" to="-E2"/>
    <trip id="273" depart="273.00" from="E2" to="E2"/>
    <trip id="274" depart="274.00" from="-E5" to="-E2"/>
    <trip id="275" depart="275.00" from="-E5" to="E4"/>
    <trip id="276" depart="276.00" from="-E0" to="E5"/>
    <trip id="277" depart="277.00" from="-E6" to="E3"/>
    <trip id="278" depart="278.00" from="-E0" to="E6"/>
    <trip id="279" depart="279.00" from="-E6" to="E1"/>
    <trip id="280" depart="280.00" from="-E3" to="E1"/>
    <trip id="281" depart="281.00" from="-E4" to="E1"/>
    <trip id="282" depart="282.00" from="-E6" to="E5"/>
    <trip id="283" depart="283.00" from="-E0" to="E6"/>
    <trip id="286" depart="286.00" from="-E5" to="E6"/>
    <trip id="289" depart="289.00" from="-E3" to="E4"/>
    <trip id="291" depart="291.00" from="-E6" to="-E2"/>
    <trip id="295" depart="295.00" from="-E6" to="E0"/>
    <trip id="296" depart="296.00" from="-E1" to="E5"/>
    <trip id="298" depart="298.00" from="-E5" to="E1"/>
    <trip id="299" depart="299.00" from="-E0" to="E6"/>
    <trip id="300" depart="300.00" from="-E0" to="E4"/>
    <trip id="301" depart="301.00" from="-E3" to="E5"/>
    <trip id="302" depart="302.00" from="-E5" to="E4"/>
    <trip id="303" depart="303.00" from="-E3" to="E5"/>
    <trip id="305" depart="305.00" from="-E5" to="E1"/>
    <trip id="308" depart="308.00" from="-E5" to="E1"/>
    <trip id="309" depart="309.00" from="-E5" to="E1"/>
    <trip id="310" depart="310.00" from="-E2" to="-E2"/>
    <trip id="312" depart="312.00" from="-E4" to="E5"/>
    <trip id="313" depart="313.00" from="-E1" to="E0"/>
    <trip id="314" depart="314.00" from="-E3" to="E4"/>
    <trip id="316" depart="316.00" from="-E2" to="-E2"/>
    <trip id="317" depart="317.00" from="-E1" to="E0"/>
    <trip id="319" depart="319.00" from="-E4" to="E1"/>
    <trip id="321" depart="321.00" from="-E5" to="E0"/>
    <trip id="323" depart="323.00" from="-E6" to="E3"/>
    <trip id="324" depart="324.00" from="-E3" to="E2"/>
    <trip id="326" depart="326.00" from="E2" to="E2"/>
    <trip id="328" depart="328.00" from="-E0" to="E4"/>
    <trip id="330" depart="330.00" from="-E4" to="E1"/>
    <trip id="332" depart="332.00" from="-E6" to="E3"/>
    <trip id="333" depart="333.00" from="-E6" to="E0"/>
    <trip id="335" depart="335.00" from="-E3" to="E5"/>
    <trip id="337" depart="337.00" from="-E4" to="E3"/>
    <trip id="338" depart="338.00" from="-E5" to="E6"/>
    <trip id="339" depart="339.00" from="-E1" to="E0"/>
    <trip id="340" depart="340.00" from="-E5" to="E0"/>
    <trip id="342" depart="342.00" from="-E0" to="E2"/>
    <trip id="343" depart="343.00" from="-E4" to="E1"/>
    <trip id="344" depart="344.00" from="-E1" to="E4"/>
    <trip id="346" depart="346.00" from="-E5" to="E6"/>
    <trip id="347" depart="347.00" from="-E6" to="E4"/>
    <trip id="348" depart="348.00" from="-E5" to="E6"/>
    <trip id="350" depart="350.00" from="-E5" to="E6"/>
    <trip id="351" depart="351.00" from="-E6" to="-E2"/>
    <trip id="353" depart="353.00" from="-E5" to="E3"/>
    <trip id="354" depart="354.00" from="-E2" to="-E2"/>
    <trip id="355" depart="355.00" from="-E5" to="E4"/>
    <trip id="358" depart="358.00" from="-E0" to="E2"/>
    <trip id="359" depart="359.00" from="-E2" to="E1"/>
    <trip id="360" depart="360.00" from="-E0" to="E6"/>
    <trip id="361" depart="361.00" from="-E6" to="E3"/>
    <trip id="362" depart="362.00" from="E2" to="E6"/>
    <trip id="363" depart="363.00" from="-E5" to="E1"/>
    <trip id="364" depart="364.00" from="-E0" to="E5"/>
    <trip id="365" depart="365.00" from="-E3" to="E4"/>
    <trip id="369" depart="369.00" from="-E2" to="E1"/>
    <trip id="373" depart="373.00" from="-E6" to="E3"/>
    <trip id="374" depart="374.00" from="-E3" to="E1"/>
    <trip id="377" depart="377.00" from="E2" to="E4"/>
    <trip id="380" depart="380.00" from="-E6" to="E4"/>
    <trip id="381" depart="381.00" from="-E6" to="E0"/>
    <trip id="382" depart="382.00" from="-E4" to="E6"/>
    <trip id="383" depart="383.00" from="-E3" to="E4"/>
    <trip id="384" depart="384.00" from="-E0" to="E6"/>
    <trip id="385" depart="385.00" from="-E4" to="E0"/>
    <trip id="386" depart="386.00" from="-E1" to="E3"/>
    <trip id="387" depart="387.00" from="-E4" to="-E2"/>
    <trip id="388" depart="388.00" from="E2" to="E6"/>
    <trip id="391" depart="391.00" from="-E5" to="E3"/>
    <trip id="396" depart="396.00" from="E2" to="E5"/>
    <trip id="398" depart="398.00" from="-E3" to="E6"/>
    <trip id="399" depart="399.00" from="-E4" to="E5"/>
</routes>
