<?xml version="1.0" encoding="UTF-8"?>
<routes>
    <vType id="passenger" accel="2.6" decel="4.5" sigma="0.5" length="5.0" minGap="2.5" maxSpeed="50.0" color="1,0,0"/>
    <vType id="bus" accel="1.2" decel="4.0" sigma="0.5" length="12.0" minGap="3.0" maxSpeed="30.0" color="0,0,1"/>
    <vType id="truck" accel="1.5" decel="3.5" sigma="0.5" length="10.0" minGap="3.0" maxSpeed="40.0" color="0,1,0"/>
    <vType id="motorcycle" accel="3.0" decel="5.0" sigma="0.5" length="2.5" minGap="1.5" maxSpeed="55.0" color="1,1,0"/>
    <vehicle id="veh_13" type="motorcycle" depart="0.97">
        <route edges="-E3 E2 E4"/>
    </vehicle>
    <vehicle id="veh_68" type="passenger" depart="11.07">
        <route edges="-E4 -E2 E3"/>
    </vehicle>
    <vehicle id="veh_66" type="passenger" depart="14.96">
        <route edges="E0 E3"/>
    </vehicle>
    <vehicle id="veh_73" type="motorcycle" depart="19.93">
        <route edges="-E5 E4"/>
    </vehicle>
    <vehicle id="veh_62" type="passenger" depart="30.21">
        <route edges="E0 E3"/>
    </vehicle>
    <vehicle id="veh_59" type="motorcycle" depart="32.7">
        <route edges="E2 E5"/>
    </vehicle>
    <vehicle id="veh_15" type="bus" depart="32.86">
        <route edges="-E4 -E2 -E0"/>
    </vehicle>
    <vehicle id="veh_14" type="passenger" depart="34.77">
        <route edges="-E1 E2 E5"/>
    </vehicle>
    <vehicle id="veh_18" type="passenger" depart="36.17">
        <route edges="-E4 -E2 -E0"/>
    </vehicle>
    <vehicle id="veh_44" type="passenger" depart="36.54">
        <route edges="E0 E3"/>
    </vehicle>
    <vehicle id="veh_36" type="passenger" depart="36.61">
        <route edges="-E2 E3"/>
    </vehicle>
    <vehicle id="veh_69" type="passenger" depart="37.64">
        <route edges="-E6 -E2 E3"/>
    </vehicle>
    <vehicle id="veh_91" type="passenger" depart="38.15">
        <route edges="-E6 -E2 -E0"/>
    </vehicle>
    <vehicle id="veh_67" type="passenger" depart="51.77">
        <route edges="-E2 E3"/>
    </vehicle>
    <vehicle id="veh_86" type="truck" depart="53.59">
        <route edges="-E4 -E2 E3"/>
    </vehicle>
    <vehicle id="veh_56" type="passenger" depart="56.65">
        <route edges="-E5 -E2 E1"/>
    </vehicle>
    <vehicle id="veh_27" type="bus" depart="56.83">
        <route edges="E2 E6"/>
    </vehicle>
    <vehicle id="veh_39" type="passenger" depart="59.19">
        <route edges="-E6 -E2 -E0"/>
    </vehicle>
    <vehicle id="veh_85" type="passenger" depart="65.72">
        <route edges="-E1 E2 E6"/>
    </vehicle>
    <vehicle id="veh_78" type="passenger" depart="66.78">
        <route edges="-E4 -E2 E3"/>
    </vehicle>
    <vehicle id="veh_20" type="bus" depart="67.29">
        <route edges="E0 E2 E4"/>
    </vehicle>
    <vehicle id="veh_76" type="passenger" depart="67.53">
        <route edges="E0 E2 E5"/>
    </vehicle>
    <vehicle id="veh_8" type="passenger" depart="70.57">
        <route edges="-E1 E2 E6"/>
    </vehicle>
    <vehicle id="veh_16" type="bus" depart="71.98">
        <route edges="E0 E3"/>
    </vehicle>
    <vehicle id="veh_42" type="passenger" depart="77.11">
        <route edges="-E4 -E2 -E0"/>
    </vehicle>
    <vehicle id="veh_77" type="passenger" depart="85.62">
        <route edges="-E2 E1"/>
    </vehicle>
    <vehicle id="veh_12" type="passenger" depart="89.22">
        <route edges="-E3 E2 E4"/>
    </vehicle>
    <vehicle id="veh_55" type="passenger" depart="89.41">
        <route edges="-E5 E6"/>
    </vehicle>
    <vehicle id="veh_38" type="passenger" depart="97.38">
        <route edges="E0 E2 E4"/>
    </vehicle>
    <vehicle id="veh_40" type="passenger" depart="107.03">
        <route edges="E0 E2 E5"/>
    </vehicle>
    <vehicle id="veh_28" type="passenger" depart="108.67">
        <route edges="E0 E2 E5"/>
    </vehicle>
    <vehicle id="veh_63" type="passenger" depart="109.27">
        <route edges="-E1 E2 E5"/>
    </vehicle>
    <vehicle id="veh_57" type="passenger" depart="111.55">
        <route edges="E0 E2 E5"/>
    </vehicle>
    <vehicle id="veh_81" type="passenger" depart="112.85">
        <route edges="-E6 -E2 -E0"/>
    </vehicle>
    <vehicle id="veh_74" type="passenger" depart="118.22">
        <route edges="-E1 E2 E6"/>
    </vehicle>
    <vehicle id="veh_84" type="passenger" depart="120.84">
        <route edges="-E5 -E2 E1"/>
    </vehicle>
    <vehicle id="veh_35" type="bus" depart="132.55">
        <route edges="-E2 E1"/>
    </vehicle>
    <vehicle id="veh_72" type="passenger" depart="132.98">
        <route edges="E0 E2 E4"/>
    </vehicle>
    <vehicle id="veh_34" type="passenger" depart="136.4">
        <route edges="-E3 E2 E4"/>
    </vehicle>
    <vehicle id="veh_89" type="passenger" depart="137.48">
        <route edges="-E4 -E2 -E0"/>
    </vehicle>
    <vehicle id="veh_2" type="passenger" depart="141.91">
        <route edges="E2 E5"/>
    </vehicle>
    <vehicle id="veh_93" type="truck" depart="149.41">
        <route edges="-E6 -E2 -E0"/>
    </vehicle>
    <vehicle id="veh_30" type="passenger" depart="153.27">
        <route edges="E0 E2 E5"/>
    </vehicle>
    <vehicle id="veh_96" type="passenger" depart="154.96">
        <route edges="-E2 E3"/>
    </vehicle>
    <vehicle id="veh_64" type="passenger" depart="157.43">
        <route edges="-E1 E2 E5"/>
    </vehicle>
    <vehicle id="veh_58" type="passenger" depart="159.4">
        <route edges="E2 E5"/>
    </vehicle>
    <vehicle id="veh_17" type="passenger" depart="172.03">
        <route edges="-E1 -E0"/>
    </vehicle>
    <vehicle id="veh_19" type="bus" depart="174.84">
        <route edges="-E2 E1"/>
    </vehicle>
    <vehicle id="veh_51" type="passenger" depart="176.1">
        <route edges="E0 E2 E4"/>
    </vehicle>
    <vehicle id="veh_53" type="bus" depart="180.42">
        <route edges="E0 E3"/>
    </vehicle>
    <vehicle id="veh_95" type="passenger" depart="184.04">
        <route edges="E2 E4"/>
    </vehicle>
    <vehicle id="veh_43" type="passenger" depart="185.9">
        <route edges="E2 E6"/>
    </vehicle>
    <vehicle id="veh_50" type="passenger" depart="188.85">
        <route edges="-E6 E4"/>
    </vehicle>
    <vehicle id="veh_31" type="truck" depart="189.98">
        <route edges="-E5 E4"/>
    </vehicle>
    <vehicle id="veh_94" type="motorcycle" depart="194.13">
        <route edges="E2 E6"/>
    </vehicle>
    <vehicle id="veh_26" type="passenger" depart="199.07">
        <route edges="-E5 E6"/>
    </vehicle>
    <vehicle id="veh_99" type="passenger" depart="201.94">
        <route edges="E2 E6"/>
    </vehicle>
    <vehicle id="veh_25" type="passenger" depart="203.22">
        <route edges="-E4 -E2 E3"/>
    </vehicle>
    <vehicle id="veh_23" type="passenger" depart="220.84">
        <route edges="-E6 -E2 -E0"/>
    </vehicle>
    <vehicle id="veh_87" type="motorcycle" depart="242.33">
        <route edges="-E5 E4"/>
    </vehicle>
    <vehicle id="veh_33" type="passenger" depart="246.82">
        <route edges="-E1 E2 E6"/>
    </vehicle>
    <vehicle id="veh_54" type="passenger" depart="249.19">
        <route edges="E2 E5"/>
    </vehicle>
    <vehicle id="veh_75" type="passenger" depart="250.49">
        <route edges="-E4 -E2 -E0"/>
    </vehicle>
    <vehicle id="veh_3" type="passenger" depart="251.64">
        <route edges="-E3 E2 E6"/>
    </vehicle>
    <vehicle id="veh_24" type="motorcycle" depart="255.55">
        <route edges="-E3 E2 E4"/>
    </vehicle>
    <vehicle id="veh_47" type="passenger" depart="256.16">
        <route edges="E2 E5"/>
    </vehicle>
    <vehicle id="veh_1" type="passenger" depart="263.07">
        <route edges="-E6 E4"/>
    </vehicle>
    <vehicle id="veh_21" type="passenger" depart="263.53">
        <route edges="E2 E6"/>
    </vehicle>
    <vehicle id="veh_6" type="passenger" depart="269.02">
        <route edges="-E6 -E2 E3"/>
    </vehicle>
    <vehicle id="veh_41" type="passenger" depart="277.65">
        <route edges="-E5 E6"/>
    </vehicle>
    <vehicle id="veh_48" type="passenger" depart="282.58">
        <route edges="E2 E6"/>
    </vehicle>
    <vehicle id="veh_90" type="passenger" depart="283.85">
        <route edges="-E3 E2 E6"/>
    </vehicle>
    <vehicle id="veh_83" type="passenger" depart="284.5">
        <route edges="E2 E6"/>
    </vehicle>
    <vehicle id="veh_10" type="passenger" depart="287.78">
        <route edges="E0 E2 E5"/>
    </vehicle>
    <vehicle id="veh_65" type="truck" depart="290.68">
        <route edges="E2"/>
    </vehicle>
    <vehicle id="veh_82" type="passenger" depart="293.61">
        <route edges="-E5 -E2 E1"/>
    </vehicle>
    <vehicle id="veh_11" type="passenger" depart="293.72">
        <route edges="E0 E2 E4"/>
    </vehicle>
    <vehicle id="veh_61" type="truck" depart="296.06">
        <route edges="E0 E2 E4"/>
    </vehicle>
    <vehicle id="veh_98" type="motorcycle" depart="309.41">
        <route edges="-E6 -E2 E3"/>
    </vehicle>
    <vehicle id="veh_70" type="passenger" depart="309.43">
        <route edges="E0 E2 E4"/>
    </vehicle>
    <vehicle id="veh_22" type="passenger" depart="313.77">
        <route edges="E0 E2 E5"/>
    </vehicle>
    <vehicle id="veh_37" type="passenger" depart="330.56">
        <route edges="-E1 E2 E6"/>
    </vehicle>
    <vehicle id="veh_52" type="truck" depart="331.23">
        <route edges="E2"/>
    </vehicle>
    <vehicle id="veh_45" type="passenger" depart="331.48">
        <route edges="-E6 -E2 -E0"/>
    </vehicle>
    <vehicle id="veh_0" type="passenger" depart="333.26">
        <route edges="-E3 E2 E6"/>
    </vehicle>
    <vehicle id="veh_32" type="motorcycle" depart="334.12">
        <route edges="-E3 E2 E4"/>
    </vehicle>
    <vehicle id="veh_60" type="passenger" depart="347.31">
        <route edges="E0 E3"/>
    </vehicle>
    <vehicle id="veh_71" type="passenger" depart="348.56">
        <route edges="-E5 E6"/>
    </vehicle>
    <vehicle id="veh_9" type="passenger" depart="350.96">
        <route edges="-E6 -E2 E3"/>
    </vehicle>
    <vehicle id="veh_88" type="truck" depart="355.86">
        <route edges="-E5 E4"/>
    </vehicle>
    <vehicle id="veh_29" type="passenger" depart="362.91">
        <route edges="-E6 -E2 -E0"/>
    </vehicle>
    <vehicle id="veh_92" type="passenger" depart="367.93">
        <route edges="E2 E5"/>
    </vehicle>
    <vehicle id="veh_49" type="passenger" depart="373.19">
        <route edges="-E4 -E2 -E0"/>
    </vehicle>
    <vehicle id="veh_46" type="motorcycle" depart="381.44">
        <route edges="-E1 E2 E6"/>
    </vehicle>
    <vehicle id="veh_80" type="passenger" depart="381.45">
        <route edges="E0 E2 E5"/>
    </vehicle>
    <vehicle id="veh_4" type="bus" depart="388.03">
        <route edges="-E2 E3"/>
    </vehicle>
    <vehicle id="veh_7" type="passenger" depart="398.42">
        <route edges="-E1 E2 E6"/>
    </vehicle>
    <vehicle id="veh_5" type="passenger" depart="399.17">
        <route edges="E0 E2 E4"/>
    </vehicle>
    <vehicle id="veh_97" type="passenger" depart="399.49">
        <route edges="E2 E4"/>
    </vehicle>
    <vehicle id="veh_79" type="passenger" depart="399.74">
        <route edges="-E3 E2 E6"/>
    </vehicle>
</routes>
