<?xml version="1.0" encoding="UTF-8"?>

<!-- generated on 2026-01-04T18:09:32.983101+07:00 by Eclipse SUMO duarouter 1.25.0
<duarouterConfiguration xmlns:xsi="http://www.w3.org/2001/XMLSchema-instance" xsi:noNamespaceSchemaLocation="http://sumo.dlr.de/xsd/duarouterConfiguration.xsd">

    <input>
        <net-file value="network.net.xml"/>
        <route-files value="time_based_routes.trips.xml"/>
    </input>

    <output>
        <output-file value="time_based_routes.rou.xml"/>
    </output>

</duarouterConfiguration>
-->

<routes xmlns:xsi="http://www.w3.org/2001/XMLSchema-instance" xsi:noNamespaceSchemaLocation="http://sumo.dlr.de/xsd/routes_file.xsd">
    <vehicle id="0" depart="0.00">
        <route edges="-E0 E1"/>
    </vehicle>
    <vehicle id="401" depart="0.00">
        <route edges="-E4 -E2 E0"/>
    </vehicle>
    <vehicle id="402" depart="0.00">
        <route edges="-E2 E3"/>
    </vehicle>
    <vehicle id="403" depart="0.00">
        <route edges="-E3 E2"/>
    </vehicle>
    <vehicle id="404" depart="0.00">
        <route edges="-E5 -E2 E3"/>
    </vehicle>
    <vehicle id="405" depart="0.00">
        <route edges="-E6 E4"/>
    </vehicle>
    <vehicle id="408" depart="0.00">
        <route edges="-E3 E1"/>
    </vehicle>
    <vehicle id="409" depart="0.00">
        <route edges="-E2 E1"/>
    </vehicle>
    <vehicle id="410" depart="0.00">
        <route edges="-E5 -E2 E1"/>
    </vehicle>
    <vehicle id="411" depart="0.00">
        <route edges="-E6 -E2 E3"/>
    </vehicle>
    <vehicle id="412" depart="0.00">
        <route edges="-E4 -E2 E3"/>
    </vehicle>
    <vehicle id="415" depart="0.00">
        <route edges="-E3 E0"/>
    </vehicle>
    <vehicle id="416" depart="0.00">
        <route edges="-E4 -E2 E1"/>
    </vehicle>
    <vehicle id="419" depart="0.00">
        <route edges="-E1 E2"/>
    </vehicle>
    <vehicle id="425" depart="0.00">
        <route edges="-E6 -E2 E0"/>
    </vehicle>
    <vehicle id="1" depart="2.59">
        <route edges="-E4 E5"/>
    </vehicle>
    <vehicle id="426" depart="3.30">
        <route edges="-E6 -E2 E0"/>
    </vehicle>
    <vehicle id="2" depart="5.47">
        <route edges="-E4 E5"/>
    </vehicle>
    <vehicle id="427" depart="6.43">
        <route edges="-E6 -E2 E0"/>
    </vehicle>
    <vehicle id="3" depart="7.32">
        <route edges="-E4 E5"/>
    </vehicle>
    <vehicle id="4" depart="7.62">
        <route edges="-E4 E5"/>
    </vehicle>
    <vehicle id="429" depart="8.85">
        <route edges="-E6 -E2 E0"/>
    </vehicle>
    <vehicle id="428" depart="8.97">
        <route edges="-E6 -E2 E0"/>
    </vehicle>
    <vehicle id="6" depart="12.80">
        <route edges="-E4 E5"/>
    </vehicle>
    <vehicle id="5" depart="13.04">
        <route edges="-E4 E5"/>
    </vehicle>
    <vehicle id="430" depart="13.48">
        <route edges="-E6 -E2 E0"/>
    </vehicle>
    <vehicle id="7" depart="13.92">
        <route edges="-E4 E5"/>
    </vehicle>
    <vehicle id="431" depart="14.41">
        <route edges="-E6 -E2 E0"/>
    </vehicle>
    <vehicle id="8" depart="16.49">
        <route edges="-E4 E5"/>
    </vehicle>
    <vehicle id="432" depart="19.09">
        <route edges="-E6 -E2 E0"/>
    </vehicle>
    <vehicle id="9" depart="19.44">
        <route edges="-E4 E5"/>
    </vehicle>
    <vehicle id="433" depart="20.14">
        <route edges="-E6 -E2 E0"/>
    </vehicle>
    <vehicle id="10" depart="22.31">
        <route edges="-E4 E5"/>
    </vehicle>
    <vehicle id="11" depart="23.28">
        <route edges="-E4 E5"/>
    </vehicle>
    <vehicle id="434" depart="23.50">
        <route edges="-E6 -E2 E0"/>
    </vehicle>
    <vehicle id="436" depart="27.07">
        <route edges="-E6 -E2 E0"/>
    </vehicle>
    <vehicle id="435" depart="27.15">
        <route edges="-E6 -E2 E0"/>
    </vehicle>
    <vehicle id="13" depart="27.51">
        <route edges="-E4 E5"/>
    </vehicle>
    <vehicle id="12" depart="28.13">
        <route edges="-E4 E5"/>
    </vehicle>
    <vehicle id="437" depart="31.02">
        <route edges="-E6 -E2 E0"/>
    </vehicle>
    <vehicle id="438" depart="31.50">
        <route edges="-E6 -E2 E0"/>
    </vehicle>
    <vehicle id="14" depart="32.58">
        <route edges="-E4 E5"/>
    </vehicle>
    <vehicle id="439" depart="34.01">
        <route edges="-E6 -E2 E0"/>
    </vehicle>
    <vehicle id="15" depart="34.85">
        <route edges="-E4 E5"/>
    </vehicle>
    <vehicle id="440" depart="36.92">
        <route edges="-E6 -E2 E0"/>
    </vehicle>
    <vehicle id="16" depart="37.86">
        <route edges="-E4 E5"/>
    </vehicle>
    <vehicle id="17" depart="39.25">
        <route edges="-E4 E5"/>
    </vehicle>
    <vehicle id="441" depart="41.16">
        <route edges="-E6 -E2 E0"/>
    </vehicle>
    <vehicle id="18" depart="41.39">
        <route edges="-E4 E5"/>
    </vehicle>
    <vehicle id="442" depart="44.49">
        <route edges="-E6 -E2 E0"/>
    </vehicle>
    <vehicle id="20" depart="45.04">
        <route edges="-E4 E5"/>
    </vehicle>
    <vehicle id="19" depart="45.36">
        <route edges="-E4 E5"/>
    </vehicle>
    <vehicle id="443" depart="46.67">
        <route edges="-E6 -E2 E0"/>
    </vehicle>
    <vehicle id="444" depart="47.32">
        <route edges="-E6 -E2 E0"/>
    </vehicle>
    <vehicle id="21" depart="48.07">
        <route edges="-E4 E5"/>
    </vehicle>
    <vehicle id="445" depart="48.98">
        <route edges="-E6 -E2 E0"/>
    </vehicle>
    <vehicle id="446" depart="50.16">
        <route edges="-E6 -E2 E0"/>
    </vehicle>
    <vehicle id="22" depart="50.60">
        <route edges="-E4 E5"/>
    </vehicle>
    <vehicle id="23" depart="52.60">
        <route edges="-E4 E5"/>
    </vehicle>
    <vehicle id="448" depart="57.58">
        <route edges="-E6 -E2 E0"/>
    </vehicle>
    <vehicle id="24" depart="58.02">
        <route edges="-E4 E5"/>
    </vehicle>
    <vehicle id="447" depart="58.03">
        <route edges="-E6 -E2 E0"/>
    </vehicle>
    <vehicle id="449" depart="59.39">
        <route edges="-E6 -E2 E0"/>
    </vehicle>
    <vehicle id="25" depart="59.55">
        <route edges="-E4 E5"/>
    </vehicle>
    <vehicle id="450" depart="62.77">
        <route edges="-E6 -E2 E0"/>
    </vehicle>
    <vehicle id="26" depart="63.56">
        <route edges="-E4 E5"/>
    </vehicle>
    <vehicle id="28" depart="64.55">
        <route edges="-E4 E5"/>
    </vehicle>
    <vehicle id="451" depart="64.57">
        <route edges="-E6 -E2 E0"/>
    </vehicle>
    <vehicle id="27" depart="65.76">
        <route edges="-E4 E5"/>
    </vehicle>
    <vehicle id="406" depart="68.55">
        <route edges="-E1 E0"/>
    </vehicle>
    <vehicle id="452" depart="68.83">
        <route edges="-E6 -E2 E0"/>
    </vehicle>
    <vehicle id="29" depart="71.19">
        <route edges="-E4 E5"/>
    </vehicle>
    <vehicle id="454" depart="71.34">
        <route edges="-E6 -E2 E0"/>
    </vehicle>
    <vehicle id="453" depart="71.82">
        <route edges="-E6 -E2 E0"/>
    </vehicle>
    <vehicle id="30" depart="72.30">
        <route edges="-E4 E5"/>
    </vehicle>
    <vehicle id="31" depart="75.23">
        <route edges="-E4 E5"/>
    </vehicle>
    <vehicle id="456" depart="76.85">
        <route edges="-E6 -E2 E0"/>
    </vehicle>
    <vehicle id="455" depart="77.56">
        <route edges="-E6 -E2 E0"/>
    </vehicle>
    <vehicle id="32" depart="77.68">
        <route edges="-E4 E5"/>
    </vehicle>
    <vehicle id="457" depart="79.96">
        <route edges="-E6 -E2 E0"/>
    </vehicle>
    <vehicle id="33" depart="82.41">
        <route edges="-E4 E5"/>
    </vehicle>
    <vehicle id="458" depart="82.49">
        <route edges="-E6 -E2 E0"/>
    </vehicle>
    <vehicle id="459" depart="84.48">
        <route edges="-E6 -E2 E0"/>
    </vehicle>
    <vehicle id="34" depart="85.30">
        <route edges="-E4 E5"/>
    </vehicle>
    <vehicle id="36" depart="86.69">
        <route edges="-E4 E5"/>
    </vehicle>
    <vehicle id="460" depart="87.37">
        <route edges="-E6 -E2 E0"/>
    </vehicle>
    <vehicle id="35" depart="88.09">
        <route edges="-E4 E5"/>
    </vehicle>
    <vehicle id="461" depart="90.65">
        <route edges="-E6 -E2 E0"/>
    </vehicle>
    <vehicle id="37" depart="90.83">
        <route edges="-E4 E5"/>
    </vehicle>
    <vehicle id="463" depart="92.52">
        <route edges="-E6 -E2 E0"/>
    </vehicle>
    <vehicle id="462" depart="93.26">
        <route edges="-E6 -E2 E0"/>
    </vehicle>
    <vehicle id="38" depart="93.47">
        <route edges="-E4 E5"/>
    </vehicle>
    <vehicle id="39" depart="95.18">
        <route edges="-E4 E5"/>
    </vehicle>
    <vehicle id="464" depart="95.90">
        <route edges="-E6 -E2 E0"/>
    </vehicle>
    <vehicle id="40" depart="97.39">
        <route edges="-E4 E5"/>
    </vehicle>
    <vehicle id="41" depart="97.61">
        <route edges="-E4 E5"/>
    </vehicle>
    <vehicle id="465" depart="99.68">
        <route edges="-E6 -E2 E0"/>
    </vehicle>
    <vehicle id="466" depart="102.38">
        <route edges="-E6 -E2 E0"/>
    </vehicle>
    <vehicle id="43" depart="104.70">
        <route edges="-E4 E5"/>
    </vehicle>
    <vehicle id="42" depart="104.83">
        <route edges="-E4 E5"/>
    </vehicle>
    <vehicle id="467" depart="105.27">
        <route edges="-E6 -E2 E0"/>
    </vehicle>
    <vehicle id="44" depart="107.13">
        <route edges="-E4 E5"/>
    </vehicle>
    <vehicle id="468" depart="107.79">
        <route edges="-E6 -E2 E0"/>
    </vehicle>
    <vehicle id="45" depart="108.28">
        <route edges="-E4 E5"/>
    </vehicle>
    <vehicle id="469" depart="110.58">
        <route edges="-E6 -E2 E0"/>
    </vehicle>
    <vehicle id="470" depart="111.77">
        <route edges="-E6 -E2 E0"/>
    </vehicle>
    <vehicle id="471" depart="114.63">
        <route edges="-E6 -E2 E0"/>
    </vehicle>
    <vehicle id="46" depart="115.48">
        <route edges="-E4 E5"/>
    </vehicle>
    <vehicle id="47" depart="116.33">
        <route edges="-E4 E5"/>
    </vehicle>
    <vehicle id="472" depart="119.23">
        <route edges="-E6 -E2 E0"/>
    </vehicle>
    <vehicle id="49" depart="121.03">
        <route edges="-E4 E5"/>
    </vehicle>
    <vehicle id="48" depart="121.89">
        <route edges="-E4 E5"/>
    </vehicle>
    <vehicle id="474" depart="122.08">
        <route edges="-E6 -E2 E0"/>
    </vehicle>
    <vehicle id="473" depart="122.40">
        <route edges="-E6 -E2 E0"/>
    </vehicle>
    <vehicle id="476" depart="124.12">
        <route edges="-E6 -E2 E0"/>
    </vehicle>
    <vehicle id="52" depart="124.40">
        <route edges="-E4 E5"/>
    </vehicle>
    <vehicle id="51" depart="125.25">
        <route edges="-E4 E5"/>
    </vehicle>
    <vehicle id="475" depart="125.97">
        <route edges="-E6 -E2 E0"/>
    </vehicle>
    <vehicle id="50" depart="126.60">
        <route edges="-E4 E5"/>
    </vehicle>
    <vehicle id="478" depart="127.27">
        <route edges="-E6 -E2 E0"/>
    </vehicle>
    <vehicle id="477" depart="129.40">
        <route edges="-E6 -E2 E0"/>
    </vehicle>
    <vehicle id="53" depart="131.17">
        <route edges="-E4 E5"/>
    </vehicle>
    <vehicle id="54" depart="131.59">
        <route edges="-E4 E5"/>
    </vehicle>
    <vehicle id="55" depart="135.88">
        <route edges="-E4 E5"/>
    </vehicle>
    <vehicle id="479" depart="138.82">
        <route edges="-E6 -E2 E0"/>
    </vehicle>
    <vehicle id="56" depart="139.54">
        <route edges="-E4 E5"/>
    </vehicle>
    <vehicle id="480" depart="139.67">
        <route edges="-E6 -E2 E0"/>
    </vehicle>
    <vehicle id="481" depart="140.21">
        <route edges="-E6 -E2 E0"/>
    </vehicle>
    <vehicle id="58" depart="140.65">
        <route edges="-E4 E5"/>
    </vehicle>
    <vehicle id="57" depart="140.71">
        <route edges="-E4 E5"/>
    </vehicle>
    <vehicle id="482" depart="143.61">
        <route edges="-E6 -E2 E0"/>
    </vehicle>
    <vehicle id="59" depart="144.72">
        <route edges="-E4 E5"/>
    </vehicle>
    <vehicle id="483" depart="145.17">
        <route edges="-E6 -E2 E0"/>
    </vehicle>
    <vehicle id="60" depart="145.79">
        <route edges="-E4 E5"/>
    </vehicle>
    <vehicle id="484" depart="146.46">
        <route edges="-E6 -E2 E0"/>
    </vehicle>
    <vehicle id="61" depart="149.93">
        <route edges="-E4 E5"/>
    </vehicle>
    <vehicle id="485" depart="150.51">
        <route edges="-E6 -E2 E0"/>
    </vehicle>
    <vehicle id="486" depart="152.02">
        <route edges="-E6 -E2 E0"/>
    </vehicle>
    <vehicle id="62" depart="152.12">
        <route edges="-E4 E5"/>
    </vehicle>
    <vehicle id="487" depart="154.44">
        <route edges="-E6 -E2 E0"/>
    </vehicle>
    <vehicle id="64" depart="155.53">
        <route edges="-E4 E5"/>
    </vehicle>
    <vehicle id="63" depart="155.72">
        <route edges="-E4 E5"/>
    </vehicle>
    <vehicle id="65" depart="159.24">
        <route edges="-E4 E5"/>
    </vehicle>
    <vehicle id="488" depart="159.55">
        <route edges="-E6 -E2 E0"/>
    </vehicle>
    <vehicle id="489" depart="160.07">
        <route edges="-E6 -E2 E0"/>
    </vehicle>
    <vehicle id="490" depart="160.85">
        <route edges="-E6 -E2 E0"/>
    </vehicle>
    <vehicle id="491" depart="163.21">
        <route edges="-E6 -E2 E0"/>
    </vehicle>
    <vehicle id="66" depart="163.29">
        <route edges="-E4 E5"/>
    </vehicle>
    <vehicle id="68" depart="165.70">
        <route edges="-E4 E5"/>
    </vehicle>
    <vehicle id="67" depart="165.77">
        <route edges="-E4 E5"/>
    </vehicle>
    <vehicle id="492" depart="166.98">
        <route edges="-E6 -E2 E0"/>
    </vehicle>
    <vehicle id="494" depart="171.77">
        <route edges="-E6 -E2 E0"/>
    </vehicle>
    <vehicle id="495" depart="171.98">
        <route edges="-E6 -E2 E0"/>
    </vehicle>
    <vehicle id="493" depart="172.88">
        <route edges="-E6 -E2 E0"/>
    </vehicle>
    <vehicle id="71" depart="173.22">
        <route edges="-E4 E5"/>
    </vehicle>
    <vehicle id="69" depart="173.56">
        <route edges="-E4 E5"/>
    </vehicle>
    <vehicle id="70" depart="174.75">
        <route edges="-E4 E5"/>
    </vehicle>
    <vehicle id="496" depart="176.13">
        <route edges="-E6 -E2 E0"/>
    </vehicle>
    <vehicle id="72" depart="178.53">
        <route edges="-E4 E5"/>
    </vehicle>
    <vehicle id="497" depart="178.85">
        <route edges="-E6 -E2 E0"/>
    </vehicle>
    <vehicle id="73" depart="180.67">
        <route edges="-E4 E5"/>
    </vehicle>
    <vehicle id="75" depart="181.46">
        <route edges="-E4 E5"/>
    </vehicle>
    <vehicle id="74" depart="182.56">
        <route edges="-E4 E5"/>
    </vehicle>
    <vehicle id="498" depart="183.43">
        <route edges="-E6 -E2 E0"/>
    </vehicle>
    <vehicle id="499" depart="185.41">
        <route edges="-E6 -E2 E0"/>
    </vehicle>
    <vehicle id="500" depart="186.34">
        <route edges="-E6 -E2 E0"/>
    </vehicle>
    <vehicle id="77" depart="188.69">
        <route edges="-E4 E5"/>
    </vehicle>
    <vehicle id="76" depart="188.80">
        <route edges="-E4 E5"/>
    </vehicle>
    <vehicle id="502" depart="190.14">
        <route edges="-E6 -E2 E0"/>
    </vehicle>
    <vehicle id="79" depart="191.69">
        <route edges="-E4 E5"/>
    </vehicle>
    <vehicle id="501" depart="191.81">
        <route edges="-E6 -E2 E0"/>
    </vehicle>
    <vehicle id="78" depart="192.65">
        <route edges="-E4 E5"/>
    </vehicle>
    <vehicle id="503" depart="194.25">
        <route edges="-E6 -E2 E0"/>
    </vehicle>
    <vehicle id="504" depart="195.67">
        <route edges="-E6 -E2 E0"/>
    </vehicle>
    <vehicle id="80" depart="196.62">
        <route edges="-E4 E5"/>
    </vehicle>
    <vehicle id="81" depart="198.86">
        <route edges="-E4 E5"/>
    </vehicle>
    <vehicle id="82" depart="199.01">
        <route edges="-E4 E5"/>
    </vehicle>
    <vehicle id="505" depart="200.86">
        <route edges="-E6 -E2 E0"/>
    </vehicle>
    <vehicle id="507" depart="203.55">
        <route edges="-E6 -E2 E0"/>
    </vehicle>
    <vehicle id="506" depart="204.37">
        <route edges="-E6 -E2 E0"/>
    </vehicle>
    <vehicle id="83" depart="206.15">
        <route edges="-E4 E5"/>
    </vehicle>
    <vehicle id="508" depart="206.90">
        <route edges="-E6 -E2 E0"/>
    </vehicle>
    <vehicle id="84" depart="207.73">
        <route edges="-E4 E5"/>
    </vehicle>
    <vehicle id="510" depart="209.16">
        <route edges="-E6 -E2 E0"/>
    </vehicle>
    <vehicle id="86" depart="210.05">
        <route edges="-E4 E5"/>
    </vehicle>
    <vehicle id="509" depart="210.42">
        <route edges="-E6 -E2 E0"/>
    </vehicle>
    <vehicle id="85" depart="210.71">
        <route edges="-E4 E5"/>
    </vehicle>
    <vehicle id="87" depart="210.77">
        <route edges="-E4 E5"/>
    </vehicle>
    <vehicle id="511" depart="216.46">
        <route edges="-E6 -E2 E0"/>
    </vehicle>
    <vehicle id="88" depart="218.39">
        <route edges="-E4 E5"/>
    </vehicle>
    <vehicle id="512" depart="219.61">
        <route edges="-E6 -E2 E0"/>
    </vehicle>
    <vehicle id="513" depart="220.85">
        <route edges="-E6 -E2 E0"/>
    </vehicle>
    <vehicle id="89" depart="222.35">
        <route edges="-E4 E5"/>
    </vehicle>
    <vehicle id="90" depart="223.43">
        <route edges="-E4 E5"/>
    </vehicle>
    <vehicle id="515" depart="223.45">
        <route edges="-E6 -E2 E0"/>
    </vehicle>
    <vehicle id="92" depart="223.62">
        <route edges="-E4 E5"/>
    </vehicle>
    <vehicle id="514" depart="224.14">
        <route edges="-E6 -E2 E0"/>
    </vehicle>
    <vehicle id="516" depart="225.78">
        <route edges="-E6 -E2 E0"/>
    </vehicle>
    <vehicle id="91" depart="225.91">
        <route edges="-E4 E5"/>
    </vehicle>
    <vehicle id="93" depart="226.77">
        <route edges="-E4 E5"/>
    </vehicle>
    <vehicle id="518" depart="231.81">
        <route edges="-E6 -E2 E0"/>
    </vehicle>
    <vehicle id="517" depart="231.90">
        <route edges="-E6 -E2 E0"/>
    </vehicle>
    <vehicle id="95" depart="232.85">
        <route edges="-E4 E5"/>
    </vehicle>
    <vehicle id="519" depart="233.96">
        <route edges="-E6 -E2 E0"/>
    </vehicle>
    <vehicle id="94" depart="234.37">
        <route edges="-E4 E5"/>
    </vehicle>
    <vehicle id="520" depart="236.58">
        <route edges="-E6 -E2 E0"/>
    </vehicle>
    <vehicle id="96" depart="238.31">
        <route edges="-E4 E5"/>
    </vehicle>
    <vehicle id="521" depart="239.24">
        <route edges="-E6 -E2 E0"/>
    </vehicle>
    <vehicle id="97" depart="242.07">
        <route edges="-E4 E5"/>
    </vehicle>
    <vehicle id="98" depart="242.14">
        <route edges="-E4 E5"/>
    </vehicle>
    <vehicle id="522" depart="243.08">
        <route edges="-E6 -E2 E0"/>
    </vehicle>
    <vehicle id="523" depart="245.01">
        <route edges="-E6 -E2 E0"/>
    </vehicle>
    <vehicle id="99" depart="246.21">
        <route edges="-E4 E5"/>
    </vehicle>
    <vehicle id="524" depart="246.52">
        <route edges="-E6 -E2 E0"/>
    </vehicle>
    <vehicle id="100" depart="248.65">
        <route edges="-E4 E5"/>
    </vehicle>
    <vehicle id="525" depart="251.32">
        <route edges="-E6 -E2 E0"/>
    </vehicle>
    <vehicle id="101" depart="251.36">
        <route edges="-E4 E5"/>
    </vehicle>
    <vehicle id="526" depart="251.91">
        <route edges="-E6 -E2 E0"/>
    </vehicle>
    <vehicle id="102" depart="254.26">
        <route edges="-E4 E5"/>
    </vehicle>
    <vehicle id="527" depart="255.11">
        <route edges="-E6 -E2 E0"/>
    </vehicle>
    <vehicle id="103" depart="255.66">
        <route edges="-E4 E5"/>
    </vehicle>
    <vehicle id="528" depart="256.71">
        <route edges="-E6 -E2 E0"/>
    </vehicle>
    <vehicle id="104" depart="256.78">
        <route edges="-E4 E5"/>
    </vehicle>
    <vehicle id="529" depart="258.69">
        <route edges="-E6 -E2 E0"/>
    </vehicle>
    <vehicle id="530" depart="261.08">
        <route edges="-E6 -E2 E0"/>
    </vehicle>
    <vehicle id="105" depart="261.72">
        <route edges="-E4 E5"/>
    </vehicle>
    <vehicle id="531" depart="263.39">
        <route edges="-E6 -E2 E0"/>
    </vehicle>
    <vehicle id="106" depart="263.73">
        <route edges="-E4 E5"/>
    </vehicle>
    <vehicle id="107" depart="266.01">
        <route edges="-E4 E5"/>
    </vehicle>
    <vehicle id="532" depart="267.14">
        <route edges="-E6 -E2 E0"/>
    </vehicle>
    <vehicle id="533" depart="268.85">
        <route edges="-E6 -E2 E0"/>
    </vehicle>
    <vehicle id="108" depart="269.07">
        <route edges="-E4 E5"/>
    </vehicle>
    <vehicle id="109" depart="271.56">
        <route edges="-E4 E5"/>
    </vehicle>
    <vehicle id="110" depart="273.25">
        <route edges="-E4 E5"/>
    </vehicle>
    <vehicle id="534" depart="274.02">
        <route edges="-E6 -E2 E0"/>
    </vehicle>
    <vehicle id="111" depart="275.11">
        <route edges="-E4 E5"/>
    </vehicle>
    <vehicle id="535" depart="275.53">
        <route edges="-E6 -E2 E0"/>
    </vehicle>
    <vehicle id="536" depart="276.58">
        <route edges="-E6 -E2 E0"/>
    </vehicle>
    <vehicle id="112" depart="277.28">
        <route edges="-E4 E5"/>
    </vehicle>
    <vehicle id="114" depart="279.80">
        <route edges="-E4 E5"/>
    </vehicle>
    <vehicle id="113" depart="281.26">
        <route edges="-E4 E5"/>
    </vehicle>
    <vehicle id="537" depart="281.67">
        <route edges="-E6 -E2 E0"/>
    </vehicle>
    <vehicle id="538" depart="283.37">
        <route edges="-E6 -E2 E0"/>
    </vehicle>
    <vehicle id="115" depart="285.30">
        <route edges="-E4 E5"/>
    </vehicle>
    <vehicle id="539" depart="286.10">
        <route edges="-E6 -E2 E0"/>
    </vehicle>
    <vehicle id="540" depart="288.84">
        <route edges="-E6 -E2 E0"/>
    </vehicle>
    <vehicle id="117" depart="289.43">
        <route edges="-E4 E5"/>
    </vehicle>
    <vehicle id="541" depart="289.91">
        <route edges="-E6 -E2 E0"/>
    </vehicle>
    <vehicle id="116" depart="290.00">
        <route edges="-E4 E5"/>
    </vehicle>
    <vehicle id="118" depart="293.95">
        <route edges="-E4 E5"/>
    </vehicle>
    <vehicle id="120" depart="294.24">
        <route edges="-E4 E5"/>
    </vehicle>
    <vehicle id="542" depart="294.44">
        <route edges="-E6 -E2 E0"/>
    </vehicle>
    <vehicle id="119" depart="294.76">
        <route edges="-E4 E5"/>
    </vehicle>
    <vehicle id="544" depart="294.93">
        <route edges="-E6 -E2 E0"/>
    </vehicle>
    <vehicle id="543" depart="296.71">
        <route edges="-E6 -E2 E0"/>
    </vehicle>
    <vehicle id="121" depart="299.61">
        <route edges="-E4 E5"/>
    </vehicle>
    <vehicle id="545" depart="301.63">
        <route edges="-E6 -E2 E0"/>
    </vehicle>
    <vehicle id="546" depart="302.32">
        <route edges="-E6 -E2 E0"/>
    </vehicle>
    <vehicle id="122" depart="302.50">
        <route edges="-E4 E5"/>
    </vehicle>
    <vehicle id="124" depart="305.43">
        <route edges="-E4 E5"/>
    </vehicle>
    <vehicle id="547" depart="305.89">
        <route edges="-E6 -E2 E0"/>
    </vehicle>
    <vehicle id="123" depart="307.03">
        <route edges="-E4 E5"/>
    </vehicle>
    <vehicle id="548" depart="307.70">
        <route edges="-E6 -E2 E0"/>
    </vehicle>
    <vehicle id="125" depart="310.24">
        <route edges="-E4 E5"/>
    </vehicle>
    <vehicle id="549" depart="311.08">
        <route edges="-E6 -E2 E0"/>
    </vehicle>
    <vehicle id="550" depart="311.15">
        <route edges="-E6 -E2 E0"/>
    </vehicle>
    <vehicle id="551" depart="313.34">
        <route edges="-E6 -E2 E0"/>
    </vehicle>
    <vehicle id="126" depart="314.40">
        <route edges="-E4 E5"/>
    </vehicle>
    <vehicle id="127" depart="315.76">
        <route edges="-E4 E5"/>
    </vehicle>
    <vehicle id="128" depart="317.36">
        <route edges="-E4 E5"/>
    </vehicle>
    <vehicle id="552" depart="317.76">
        <route edges="-E6 -E2 E0"/>
    </vehicle>
    <vehicle id="553" depart="319.79">
        <route edges="-E6 -E2 E0"/>
    </vehicle>
    <vehicle id="554" depart="320.98">
        <route edges="-E6 -E2 E0"/>
    </vehicle>
    <vehicle id="130" depart="321.14">
        <route edges="-E4 E5"/>
    </vehicle>
    <vehicle id="129" depart="321.23">
        <route edges="-E4 E5"/>
    </vehicle>
    <vehicle id="555" depart="324.13">
        <route edges="-E6 -E2 E0"/>
    </vehicle>
    <vehicle id="132" depart="326.04">
        <route edges="-E4 E5"/>
    </vehicle>
    <vehicle id="131" depart="327.50">
        <route edges="-E4 E5"/>
    </vehicle>
    <vehicle id="556" depart="327.99">
        <route edges="-E6 -E2 E0"/>
    </vehicle>
    <vehicle id="557" depart="330.00">
        <route edges="-E6 -E2 E0"/>
    </vehicle>
    <vehicle id="133" depart="330.55">
        <route edges="-E4 E5"/>
    </vehicle>
    <vehicle id="134" depart="331.17">
        <route edges="-E4 E5"/>
    </vehicle>
    <vehicle id="559" depart="331.76">
        <route edges="-E6 -E2 E0"/>
    </vehicle>
    <vehicle id="135" depart="333.12">
        <route edges="-E4 E5"/>
    </vehicle>
    <vehicle id="558" depart="333.30">
        <route edges="-E6 -E2 E0"/>
    </vehicle>
    <vehicle id="560" depart="335.82">
        <route edges="-E6 -E2 E0"/>
    </vehicle>
    <vehicle id="561" depart="337.38">
        <route edges="-E6 -E2 E0"/>
    </vehicle>
    <vehicle id="137" depart="337.72">
        <route edges="-E4 E5"/>
    </vehicle>
    <vehicle id="136" depart="339.06">
        <route edges="-E4 E5"/>
    </vehicle>
    <vehicle id="562" depart="340.73">
        <route edges="-E6 -E2 E0"/>
    </vehicle>
    <vehicle id="139" depart="343.99">
        <route edges="-E4 E5"/>
    </vehicle>
    <vehicle id="138" depart="344.21">
        <route edges="-E4 E5"/>
    </vehicle>
    <vehicle id="563" depart="344.66">
        <route edges="-E6 -E2 E0"/>
    </vehicle>
    <vehicle id="140" depart="348.32">
        <route edges="-E4 E5"/>
    </vehicle>
    <vehicle id="564" depart="349.52">
        <route edges="-E6 -E2 E0"/>
    </vehicle>
    <vehicle id="141" depart="351.24">
        <route edges="-E4 E5"/>
    </vehicle>
    <vehicle id="142" depart="352.59">
        <route edges="-E4 E5"/>
    </vehicle>
    <vehicle id="565" depart="352.72">
        <route edges="-E6 -E2 E0"/>
    </vehicle>
    <vehicle id="566" depart="353.14">
        <route edges="-E6 -E2 E0"/>
    </vehicle>
    <vehicle id="568" depart="355.12">
        <route edges="-E6 -E2 E0"/>
    </vehicle>
    <vehicle id="143" depart="355.80">
        <route edges="-E4 E5"/>
    </vehicle>
    <vehicle id="567" depart="356.31">
        <route edges="-E6 -E2 E0"/>
    </vehicle>
    <vehicle id="569" depart="358.43">
        <route edges="-E6 -E2 E0"/>
    </vehicle>
    <vehicle id="145" depart="359.22">
        <route edges="-E4 E5"/>
    </vehicle>
    <vehicle id="570" depart="359.77">
        <route edges="-E6 -E2 E0"/>
    </vehicle>
    <vehicle id="144" depart="359.82">
        <route edges="-E4 E5"/>
    </vehicle>
    <vehicle id="146" depart="364.26">
        <route edges="-E4 E5"/>
    </vehicle>
    <vehicle id="571" depart="364.53">
        <route edges="-E6 -E2 E0"/>
    </vehicle>
    <vehicle id="147" depart="365.70">
        <route edges="-E4 E5"/>
    </vehicle>
    <vehicle id="148" depart="368.02">
        <route edges="-E4 E5"/>
    </vehicle>
    <vehicle id="572" depart="368.56">
        <route edges="-E6 -E2 E0"/>
    </vehicle>
    <vehicle id="573" depart="371.04">
        <route edges="-E6 -E2 E0"/>
    </vehicle>
    <vehicle id="149" depart="371.34">
        <route edges="-E4 E5"/>
    </vehicle>
    <vehicle id="150" depart="371.99">
        <route edges="-E4 E5"/>
    </vehicle>
    <vehicle id="574" depart="373.16">
        <route edges="-E6 -E2 E0"/>
    </vehicle>
    <vehicle id="575" depart="374.51">
        <route edges="-E6 -E2 E0"/>
    </vehicle>
    <vehicle id="151" depart="376.71">
        <route edges="-E4 E5"/>
    </vehicle>
    <vehicle id="576" depart="376.95">
        <route edges="-E6 -E2 E0"/>
    </vehicle>
    <vehicle id="577" depart="377.57">
        <route edges="-E6 -E2 E0"/>
    </vehicle>
    <vehicle id="152" depart="378.43">
        <route edges="-E4 E5"/>
    </vehicle>
    <vehicle id="153" depart="379.79">
        <route edges="-E4 E5"/>
    </vehicle>
    <vehicle id="154" depart="383.36">
        <route edges="-E4 E5"/>
    </vehicle>
    <vehicle id="579" depart="383.48">
        <route edges="-E6 -E2 E0"/>
    </vehicle>
    <vehicle id="578" depart="383.75">
        <route edges="-E6 -E2 E0"/>
    </vehicle>
    <vehicle id="156" depart="386.04">
        <route edges="-E4 E5"/>
    </vehicle>
    <vehicle id="155" depart="386.75">
        <route edges="-E4 E5"/>
    </vehicle>
    <vehicle id="157" depart="389.80">
        <route edges="-E4 E5"/>
    </vehicle>
    <vehicle id="582" depart="389.82">
        <route edges="-E6 -E2 E0"/>
    </vehicle>
    <vehicle id="580" depart="390.15">
        <route edges="-E6 -E2 E0"/>
    </vehicle>
    <vehicle id="581" depart="391.23">
        <route edges="-E6 -E2 E0"/>
    </vehicle>
    <vehicle id="158" depart="392.22">
        <route edges="-E4 E5"/>
    </vehicle>
    <vehicle id="159" depart="393.77">
        <route edges="-E4 E5"/>
    </vehicle>
    <vehicle id="160" depart="396.56">
        <route edges="-E4 E5"/>
    </vehicle>
    <vehicle id="583" depart="397.96">
        <route edges="-E6 -E2 E0"/>
    </vehicle>
    <vehicle id="584" depart="398.62">
        <route edges="-E6 -E2 E0"/>
    </vehicle>
    <vehicle id="161" depart="399.58">
        <route edges="-E4 E5"/>
    </vehicle>