<?xml version="1.0" ?>
<routes xmlns:xsi="http://www.w3.org/2001/XMLSchema-instance" xsi:noNamespaceSchemaLocation="http://sumo.dlr.de/xsd/routes_file.xsd">
	<trip id="0" depart="0.00" from="-E0" to="E1"/>
	<trip id="401" depart="0.00" from="-E4" to="E0"/>
	<trip id="402" depart="0.00" from="-E2" to="E3"/>
	<trip id="403" depart="0.00" from="-E3" to="E2"/>
	<trip id="404" depart="0.00" from="-E5" to="E3"/>
	<trip id="405" depart="0.00" from="-E6" to="E4"/>
	<trip id="408" depart="0.00" from="-E3" to="E1"/>
	<trip id="409" depart="0.00" from="-E2" to="E1"/>
	<trip id="410" depart="0.00" from="-E5" to="E1"/>
	<trip id="411" depart="0.00" from="-E6" to="E3"/>
	<trip id="412" depart="0.00" from="-E4" to="E3"/>
	<trip id="415" depart="0.00" from="-E3" to="E0"/>
	<trip id="416" depart="0.00" from="-E4" to="E1"/>
	<trip id="419" depart="0.00" from="-E1" to="E2"/>
	<trip id="425" depart="0.00" from="-E6" to="E0"/>
	<trip id="1" depart="2.59" from="-E4" to="E5"/>
	<trip id="426" depart="3.30" from="-E6" to="E0"/>
	<trip id="2" depart="5.47" from="-E4" to="E5"/>
	<trip id="427" depart="6.43" from="-E6" to="E0"/>
	<trip id="3" depart="7.32" from="-E4" to="E5"/>
	<trip id="4" depart="7.62" from="-E4" to="E5"/>
	<trip id="429" depart="8.85" from="-E6" to="E0"/>
	<trip id="428" depart="8.97" from="-E6" to="E0"/>
	<trip id="6" depart="12.80" from="-E4" to="E5"/>
	<trip id="5" depart="13.04" from="-E4" to="E5"/>
	<trip id="430" depart="13.48" from="-E6" to="E0"/>
	<trip id="7" depart="13.92" from="-E4" to="E5"/>
	<trip id="431" depart="14.41" from="-E6" to="E0"/>
	<trip id="8" depart="16.49" from="-E4" to="E5"/>
	<trip id="432" depart="19.09" from="-E6" to="E0"/>
	<trip id="9" depart="19.44" from="-E4" to="E5"/>
	<trip id="433" depart="20.14" from="-E6" to="E0"/>
	<trip id="10" depart="22.31" from="-E4" to="E5"/>
	<trip id="11" depart="23.28" from="-E4" to="E5"/>
	<trip id="434" depart="23.50" from="-E6" to="E0"/>
	<trip id="436" depart="27.07" from="-E6" to="E0"/>
	<trip id="435" depart="27.15" from="-E6" to="E0"/>
	<trip id="13" depart="27.51" from="-E4" to="E5"/>
	<trip id="12" depart="28.13" from="-E4" to="E5"/>
	<trip id="437" depart="31.02" from="-E6" to="E0"/>
	<trip id="438" depart="31.50" from="-E6" to="E0"/>
	<trip id="14" depart="32.58" from="-E4" to="E5"/>
	<trip id="439" depart="34.01" from="-E6" to="E0"/>
	<trip id="15" depart="34.85" from="-E4" to="E5"/>
	<trip id="440" depart="36.92" from="-E6" to="E0"/>
	<trip id="16" depart="37.86" from="-E4" to="E5"/>
	<trip id="17" depart="39.25" from="-E4" to="E5"/>
	<trip id="441" depart="41.16" from="-E6" to="E0"/>
	<trip id="18" depart="41.39" from="-E4" to="E5"/>
	<trip id="442" depart="44.49" from="-E6" to="E0"/>
	<trip id="20" depart="45.04" from="-E4" to="E5"/>
	<trip id="19" depart="45.36" from="-E4" to="E5"/>
	<trip id="443" depart="46.67" from="-E6" to="E0"/>
	<trip id="444" depart="47.32" from="-E6" to="E0"/>
	<trip id="21" depart="48.07" from="-E4" to="E5"/>
	<trip id="445" depart="48.98" from="-E6" to="E0"/>
	<trip id="446" depart="50.16" from="-E6" to="E0"/>
	<trip id="22" depart="50.60" from="-E4" to="E5"/>
	<trip id="23" depart="52.60" from="-E4" to="E5"/>
	<trip id="448" depart="57.58" from="-E6" to="E0"/>
	<trip id="24" depart="58.02" from="-E4" to="E5"/>
	<trip id="447" depart="58.03" from="-E6" to="E0"/>
	<trip id="449" depart="59.39" from="-E6" to="E0"/>
	<trip id="25" depart="59.55" from="-E4" to="E5"/>
	<trip id="450" depart="62.77" from="-E6" to="E0"/>
	<trip id="26" depart="63.56" from="-E4" to="E5"/>
	<trip id="28" depart="64.55" from="-E4" to="E5"/>
	<trip id="451" depart="64.57" from="-E6" to="E0"/>
	<trip id="27" depart="65.76" from="-E4" to="E5"/>
	<trip id="406" depart="68.55" from="-E1" to="E0"/>
	<trip id="452" depart="68.83" from="-E6" to="E0"/>
	<trip id="29" depart="71.19" from="-E4" to="E5"/>
	<trip id="454" depart="71.34" from="-E6" to="E0"/>
	<trip id="453" depart="71.82" from="-E6" to="E0"/>
	<trip id="30" depart="72.30" from="-E4" to="E5"/>
	<trip id="31" depart="75.23" from="-E4" to="E5"/>
	<trip id="456" depart="76.85" from="-E6" to="E0"/>
	<trip id="455" depart="77.56" from="-E6" to="E0"/>
	<trip id="32" depart="77.68" from="-E4" to="E5"/>
	<trip id="457" depart="79.96" from="-E6" to="E0"/>
	<trip id="33" depart="82.41" from="-E4" to="E5"/>
	<trip id="458" depart="82.49" from="-E6" to="E0"/>
	<trip id="459" depart="84.48" from="-E6" to="E0"/>
	<trip id="34" depart="85.30" from="-E4" to="E5"/>
	<trip id="36" depart="86.69" from="-E4" to="E5"/>
	<trip id="460" depart="87.37" from="-E6" to="E0"/>
	<trip id="35" depart="88.09" from="-E4" to="E5"/>
	<trip id="461" depart="90.65" from="-E6" to="E0"/>
	<trip id="37" depart="90.83" from="-E4" to="E5"/>
	<trip id="463" depart="92.52" from="-E6" to="E0"/>
	<trip id="462" depart="93.26" from="-E6" to="E0"/>
	<trip id="38" depart="93.47" from="-E4" to="E5"/>
	<trip id="39" depart="95.18" from="-E4" to="E5"/>
	<trip id="464" depart="95.90" from="-E6" to="E0"/>
	<trip id="40" depart="97.39" from="-E4" to="E5"/>
	<trip id="41" depart="97.61" from="-E4" to="E5"/>
	<trip id="465" depart="99.68" from="-E6" to="E0"/>
	<trip id="466" depart="102.38" from="-E6" to="E0"/>
	<trip id="43" depart="104.70" from="-E4" to="E5"/>
	<trip id="42" depart="104.83" from="-E4" to="E5"/>
	<trip id="467" depart="105.27" from="-E6" to="E0"/>
	<trip id="44" depart="107.13" from="-E4" to="E5"/>
	<trip id="468" depart="107.79" from="-E6" to="E0"/>
	<trip id="45" depart="108.28" from="-E4" to="E5"/>
	<trip id="469" depart="110.58" from="-E6" to="E0"/>
	<trip id="470" depart="111.77" from="-E6" to="E0"/>
	<trip id="471" depart="114.63" from="-E6" to="E0"/>
	<trip id="46" depart="115.48" from="-E4" to="E5"/>
	<trip id="47" depart="116.33" from="-E4" to="E5"/>
	<trip id="472" depart="119.23" from="-E6" to="E0"/>
	<trip id="49" depart="121.03" from="-E4" to="E5"/>
	<trip id="48" depart="121.89" from="-E4" to="E5"/>
	<trip id="474" depart="122.08" from="-E6" to="E0"/>
	<trip id="473" depart="122.40" from="-E6" to="E0"/>
	<trip id="476" depart="124.12" from="-E6" to="E0"/>
	<trip id="52" depart="124.40" from="-E4" to="E5"/>
	<trip id="51" depart="125.25" from="-E4" to="E5"/>
	<trip id="475" depart="125.97" from="-E6" to="E0"/>
	<trip id="50" depart="126.60" from="-E4" to="E5"/>
	<trip id="478" depart="127.27" from="-E6" to="E0"/>
	<trip id="477" depart="129.40" from="-E6" to="E0"/>
	<trip id="53" depart="131.17" from="-E4" to="E5"/>
	<trip id="54" depart="131.59" from="-E4" to="E5"/>
	<trip id="55" depart="135.88" from="-E4" to="E5"/>
	<trip id="479" depart="138.82" from="-E6" to="E0"/>
	<trip id="56" depart="139.54" from="-E4" to="E5"/>
	<trip id="480" depart="139.67" from="-E6" to="E0"/>
	<trip id="481" depart="140.21" from="-E6" to="E0"/>
	<trip id="58" depart="140.65" from="-E4" to="E5"/>
	<trip id="57" depart="140.71" from="-E4" to="E5"/>
	<trip id="482" depart="143.61" from="-E6" to="E0"/>
	<trip id="59" depart="144.72" from="-E4" to="E5"/>
	<trip id="483" depart="145.17" from="-E6" to="E0"/>
	<trip id="60" depart="145.79" from="-E4" to="E5"/>
	<trip id="484" depart="146.46" from="-E6" to="E0"/>
	<trip id="61" depart="149.93" from="-E4" to="E5"/>
	<trip id="485" depart="150.51" from="-E6" to="E0"/>
	<trip id="486" depart="152.02" from="-E6" to="E0"/>
	<trip id="62" depart="152.12" from="-E4" to="E5"/>
	<trip id="487" depart="154.44" from="-E6" to="E0"/>
	<trip id="64" depart="155.53" from="-E4" to="E5"/>
	<trip id="63" depart="155.72" from="-E4" to="E5"/>
	<trip id="65" depart="159.24" from="-E4" to="E5"/>
	<trip id="488" depart="159.55" from="-E6" to="E0"/>
	<trip id="489" depart="160.07" from="-E6" to="E0"/>
	<trip id="490" depart="160.85" from="-E6" to="E0"/>
	<trip id="491" depart="163.21" from="-E6" to="E0"/>
	<trip id="66" depart="163.29" from="-E4" to="E5"/>
	<trip id="68" depart="165.70" from="-E4" to="E5"/>
	<trip id="67" depart="165.77" from="-E4" to="E5"/>
	<trip id="492" depart="166.98" from="-E6" to="E0"/>
	<trip id="494" depart="171.77" from="-E6" to="E0"/>
	<trip id="495" depart="171.98" from="-E6" to="E0"/>
	<trip id="493" depart="172.88" from="-E6" to="E0"/>
	<trip id="71" depart="173.22" from="-E4" to="E5"/>
	<trip id="69" depart="173.56" from="-E4" to="E5"/>
	<trip id="70" depart="174.75" from="-E4" to="E5"/>
	<trip id="496" depart="176.13" from="-E6" to="E0"/>
	<trip id="72" depart="178.53" from="-E4" to="E5"/>
	<trip id="497" depart="178.85" from="-E6" to="E0"/>
	<trip id="73" depart="180.67" from="-E4" to="E5"/>
	<trip id="75" depart="181.46" from="-E4" to="E5"/>
	<trip id="74" depart="182.56" from="-E4" to="E5"/>
	<trip id="498" depart="183.43" from="-E6" to="E0"/>
	<trip id="499" depart="185.41" from="-E6" to="E0"/>
	<trip id="500" depart="186.34" from="-E6" to="E0"/>
	<trip id="77" depart="188.69" from="-E4" to="E5"/>
	<trip id="76" depart="188.80" from="-E4" to="E5"/>
	<trip id="502" depart="190.14" from="-E6" to="E0"/>
	<trip id="79" depart="191.69" from="-E4" to="E5"/>
	<trip id="501" depart="191.81" from="-E6" to="E0"/>
	<trip id="78" depart="192.65" from="-E4" to="E5"/>
	<trip id="503" depart="194.25" from="-E6" to="E0"/>
	<trip id="504" depart="195.67" from="-E6" to="E0"/>
	<trip id="80" depart="196.62" from="-E4" to="E5"/>
	<trip id="81" depart="198.86" from="-E4" to="E5"/>
	<trip id="82" depart="199.01" from="-E4" to="E5"/>
	<trip id="505" depart="200.86" from="-E6" to="E0"/>
	<trip id="507" depart="203.55" from="-E6" to="E0"/>
	<trip id="506" depart="204.37" from="-E6" to="E0"/>
	<trip id="83" depart="206.15" from="-E4" to="E5"/>
	<trip id="508" depart="206.90" from="-E6" to="E0"/>
	<trip id="84" depart="207.73" from="-E4" to="E5"/>
	<trip id="510" depart="209.16" from="-E6" to="E0"/>
	<trip id="86" depart="210.05" from="-E4" to="E5"/>
	<trip id="509" depart="210.42" from="-E6" to="E0"/>
	<trip id="85" depart="210.71" from="-E4" to="E5"/>
	<trip id="87" depart="210.77" from="-E4" to="E5"/>
	<trip id="511" depart="216.46" from="-E6" to="E0"/>
	<trip id="88" depart="218.39" from="-E4" to="E5"/>
	<trip id="512" depart="219.61" from="-E6" to="E0"/>
	<trip id="513" depart="220.85" from="-E6" to="E0"/>
	<trip id="89" depart="222.35" from="-E4" to="E5"/>
	<trip id="90" depart="223.43" from="-E4" to="E5"/>
	<trip id="515" depart="223.45" from="-E6" to="E0"/>
	<trip id="92" depart="223.62" from="-E4" to="E5"/>
	<trip id="514" depart="224.14" from="-E6" to="E0"/>
	<trip id="516" depart="225.78" from="-E6" to="E0"/>
	<trip id="91" depart="225.91" from="-E4" to="E5"/>
	<trip id="93" depart="226.77" from="-E4" to="E5"/>
	<trip id="518" depart="231.81" from="-E6" to="E0"/>
	<trip id="517" depart="231.90" from="-E6" to="E0"/>
	<trip id="95" depart="232.85" from="-E4" to="E5"/>
	<trip id="519" depart="233.96" from="-E6" to="E0"/>
	<trip id="94" depart="234.37" from="-E4" to="E5"/>
	<trip id="520" depart="236.58" from="-E6" to="E0"/>
	<trip id="96" depart="238.31" from="-E4" to="E5"/>
	<trip id="521" depart="239.24" from="-E6" to="E0"/>
	<trip id="97" depart="242.07" from="-E4" to="E5"/>
	<trip id="98" depart="242.14" from="-E4" to="E5"/>
	<trip id="522" depart="243.08" from="-E6" to="E0"/>
	<trip id="523" depart="245.01" from="-E6" to="E0"/>
	<trip id="99" depart="246.21" from="-E4" to="E5"/>
	<trip id="524" depart="246.52" from="-E6" to="E0"/>
	<trip id="100" depart="248.65" from="-E4" to="E5"/>
	<trip id="525" depart="251.32" from="-E6" to="E0"/>
	<trip id="101" depart="251.36" from="-E4" to="E5"/>
	<trip id="526" depart="251.91" from="-E6" to="E0"/>
	<trip id="102" depart="254.26" from="-E4" to="E5"/>
	<trip id="527" depart="255.11" from="-E6" to="E0"/>
	<trip id="103" depart="255.66" from="-E4" to="E5"/>
	<trip id="528" depart="256.71" from="-E6" to="E0"/>
	<trip id="104" depart="256.78" from="-E4" to="E5"/>
	<trip id="529" depart="258.69" from="-E6" to="E0"/>
	<trip id="530" depart="261.08" from="-E6" to="E0"/>
	<trip id="105" depart="261.72" from="-E4" to="E5"/>
	<trip id="531" depart="263.39" from="-E6" to="E0"/>
	<trip id="106" depart="263.73" from="-E4" to="E5"/>
	<trip id="107" depart="266.01" from="-E4" to="E5"/>
	<trip id="532" depart="267.14" from="-E6" to="E0"/>
	<trip id="533" depart="268.85" from="-E6" to="E0"/>
	<trip id="108" depart="269.07" from="-E4" to="E5"/>
	<trip id="109" depart="271.56" from="-E4" to="E5"/>
	<trip id="110" depart="273.25" from="-E4" to="E5"/>
	<trip id="534" depart="274.02" from="-E6" to="E0"/>
	<trip id="111" depart="275.11" from="-E4" to="E5"/>
	<trip id="535" depart="275.53" from="-E6" to="E0"/>
	<trip id="536" depart="276.58" from="-E6" to="E0"/>
	<trip id="112" depart="277.28" from="-E4" to="E5"/>
	<trip id="114" depart="279.80" from="-E4" to="E5"/>
	<trip id="113" depart="281.26" from="-E4" to="E5"/>
	<trip id="537" depart="281.67" from="-E6" to="E0"/>
	<trip id="538" depart="283.37" from="-E6" to="E0"/>
	<trip id="115" depart="285.30" from="-E4" to="E5"/>
	<trip id="539" depart="286.10" from="-E6" to="E0"/>
	<trip id="540" depart="288.84" from="-E6" to="E0"/>
	<trip id="117" depart="289.43" from="-E4" to="E5"/>
	<trip id="541" depart="289.91" from="-E6" to="E0"/>
	<trip id="116" depart="290.00" from="-E4" to="E5"/>
	<trip id="118" depart="293.95" from="-E4" to="E5"/>
	<trip id="120" depart="294.24" from="-E4" to="E5"/>
	<trip id="542" depart="294.44" from="-E6" to="E0"/>
	<trip id="119" depart="294.76" from="-E4" to="E5"/>
	<trip id="544" depart="294.93" from="-E6" to="E0"/>
	<trip id="543" depart="296.71" from="-E6" to="E0"/>
	<trip id="121" depart="299.61" from="-E4" to="E5"/>
	<trip id="545" depart="301.63" from="-E6" to="E0"/>
	<trip id="546" depart="302.32" from="-E6" to="E0"/>
	<trip id="122" depart="302.50" from="-E4" to="E5"/>
	<trip id="124" depart="305.43" from="-E4" to="E5"/>
	<trip id="547" depart="305.89" from="-E6" to="E0"/>
	<trip id="123" depart="307.03" from="-E4" to="E5"/>
	<trip id="548" depart="307.70" from="-E6" to="E0"/>
	<trip id="125" depart="310.24" from="-E4" to="E5"/>
	<trip id="549" depart="311.08" from="-E6" to="E0"/>
	<trip id="550" depart="311.15" from="-E6" to="E0"/>
	<trip id="551" depart="313.34" from="-E6" to="E0"/>
	<trip id="126" depart="314.40" from="-E4" to="E5"/>
	<trip id="127" depart="315.76" from="-E4" to="E5"/>
	<trip id="128" depart="317.36" from="-E4" to="E5"/>
	<trip id="552" depart="317.76" from="-E6" to="E0"/>
	<trip id="553" depart="319.79" from="-E6" to="E0"/>
	<trip id="554" depart="320.98" from="-E6" to="E0"/>
	<trip id="130" depart="321.14" from="-E4" to="E5"/>
	<trip id="129" depart="321.23" from="-E4" to="E5"/>
	<trip id="555" depart="324.13" from="-E6" to="E0"/>
	<trip id="132" depart="326.04" from="-E4" to="E5"/>
	<trip id="131" depart="327.50" from="-E4" to="E5"/>
	<trip id="556" depart="327.99" from="-E6" to="E0"/>
	<trip id="557" depart="330.00" from="-E6" to="E0"/>
	<trip id="133" depart="330.55" from="-E4" to="E5"/>
	<trip id="134" depart="331.17" from="-E4" to="E5"/>
	<trip id="559" depart="331.76" from="-E6" to="E0"/>
	<trip id="135" depart="333.12" from="-E4" to="E5"/>
	<trip id="558" depart="333.30" from="-E6" to="E0"/>
	<trip id="560" depart="335.82" from="-E6" to="E0"/>
	<trip id="561" depart="337.38" from="-E6" to="E0"/>
	<trip id="137" depart="337.72" from="-E4" to="E5"/>
	<trip id="136" depart="339.06" from="-E4" to="E5"/>
	<trip id="562" depart="340.73" from="-E6" to="E0"/>
	<trip id="139" depart="343.99" from="-E4" to="E5"/>
	<trip id="138" depart="344.21" from="-E4" to="E5"/>
	<trip id="563" depart="344.66" from="-E6" to="E0"/>
	<trip id="140" depart="348.32" from="-E4" to="E5"/>
	<trip id="564" depart="349.52" from="-E6" to="E0"/>
	<trip id="141" depart="351.24" from="-E4" to="E5"/>
	<trip id="142" depart="352.59" from="-E4" to="E5"/>
	<trip id="565" depart="352.72" from="-E6" to="E0"/>
	<trip id="566" depart="353.14" from="-E6" to="E0"/>
	<trip id="568" depart="355.12" from="-E6" to="E0"/>
	<trip id="143" depart="355.80" from="-E4" to="E5"/>
	<trip id="567" depart="356.31" from="-E6" to="E0"/>
	<trip id="569" depart="358.43" from="-E6" to="E0"/>
	<trip id="145" depart="359.22" from="-E4" to="E5"/>
	<trip id="570" depart="359.77" from="-E6" to="E0"/>
	<trip id="144" depart="359.82" from="-E4" to="E5"/>
	<trip id="146" depart="364.26" from="-E4" to="E5"/>
	<trip id="571" depart="364.53" from="-E6" to="E0"/>
	<trip id="147" depart="365.70" from="-E4" to="E5"/>
	<trip id="148" depart="368.02" from="-E4" to="E5"/>
	<trip id="572" depart="368.56" from="-E6" to="E0"/>
	<trip id="573" depart="371.04" from="-E6" to="E0"/>
	<trip id="149" depart="371.34" from="-E4" to="E5"/>
	<trip id="150" depart="371.99" from="-E4" to="E5"/>
	<trip id="574" depart="373.16" from="-E6" to="E0"/>
	<trip id="575" depart="374.51" from="-E6" to="E0"/>
	<trip id="151" depart="376.71" from="-E4" to="E5"/>
	<trip id="576" depart="376.95" from="-E6" to="E0"/>
	<trip id="577" depart="377.57" from="-E6" to="E0"/>
	<trip id="152" depart="378.43" from="-E4" to="E5"/>
	<trip id="153" depart="379.79" from="-E4" to="E5"/>
	<trip id="154" depart="383.36" from="-E4" to="E5"/>
	<trip id="579" depart="383.48" from="-E6" to="E0"/>
	<trip id="578" depart="383.75" from="-E6" to="E0"/>
	<trip id="156" depart="386.04" from="-E4" to="E5"/>
	<trip id="155" depart="386.75" from="-E4" to="E5"/>
	<trip id="157" depart="389.80" from="-E4" to="E5"/>
	<trip id="582" depart="389.82" from="-E6" to="E0"/>
	<trip id="580" depart="390.15" from="-E6" to="E0"/>
	<trip id="581" depart="391.23" from="-E6" to="E0"/>
	<trip id="158" depart="392.22" from="-E4" to="E5"/>
	<trip id="159" depart="393.77" from="-E4" to="E5"/>
	<trip id="160" depart="396.56" from="-E4" to="E5"/>
	<trip id="583" depart="397.96" from="-E6" to="E0"/>
	<trip id="584" depart="398.62" from="-E6" to="E0"/>
	<trip id="161" depart="399.58" from="-E4" to="E5"/>
	<trip id="162" depart="402.12" from="-E4" to="E5"/>
	<trip id="585" depart="402.22" from="-E6" to="E0"/>
	<trip id="163" depart="403.18" from="-E4" to="E5"/>
	<trip id="586" depart="403.78" from="-E6" to="E0"/>
	<trip id="587" depart="406.56" from="-E6" to="E0"/>
	<trip id="588" depart="409.10" from="-E6" to="E0"/>
	<trip id="164" depart="409.66" from="-E4" to="E5"/>
	<trip id="165" depart="410.57" from="-E4" to="E5"/>
	<trip id="590" depart="411.21" from="-E6" to="E0"/>
	<trip id="589" depart="412.97" from="-E6" to="E0"/>
	<trip id="166" depart="413.03" from="-E4" to="E5"/>
	<trip id="591" depart="414.38" from="-E6" to="E0"/>
	<trip id="167" depart="416.29" from="-E4" to="E5"/>
	<trip id="168" depart="417.43" from="-E4" to="E5"/>
	<trip id="169" depart="418.56" from="-E4" to="E5"/>
	<trip id="592" depart="418.72" from="-E6" to="E0"/>
	<trip id="593" depart="420.95" from="-E6" to="E0"/>
	<trip id="594" depart="421.54" from="-E6" to="E0"/>
	<trip id="171" depart="421.66" from="-E4" to="E5"/>
	<trip id="595" depart="424.41" from="-E6" to="E0"/>
	<trip id="170" depart="424.65" from="-E4" to="E5"/>
	<trip id="172" depart="427.02" from="-E4" to="E5"/>
	<trip id="596" depart="427.49" from="-E6" to="E0"/>
	<trip id="597" depart="429.62" from="-E6" to="E0"/>
	<trip id="173" depart="430.82" from="-E4" to="E5"/>
	<trip id="175" depart="433.08" from="-E4" to="E5"/>
	<trip id="174" depart="434.14" from="-E4" to="E5"/>
	<trip id="600" depart="435.09" from="-E6" to="E0"/>
	<trip id="598" depart="435.43" from="-E6" to="E0"/>
	<trip id="599" depart="435.66" from="-E6" to="E0"/>
	<trip id="176" depart="437.29" from="-E4" to="E5"/>
	<trip id="177" depart="438.96" from="-E4" to="E5"/>
	<trip id="601" depart="441.16" from="-E6" to="E0"/>
	<trip id="602" depart="442.82" from="-E6" to="E0"/>
	<trip id="178" depart="443.67" from="-E4" to="E5"/>
	<trip id="603" depart="444.58" from="-E6" to="E0"/>
	<trip id="179" depart="446.08" from="-E4" to="E5"/>
	<trip id="180" depart="448.10" from="-E4" to="E5"/>
	<trip id="604" depart="449.09" from="-E6" to="E0"/>
	<trip id="181" depart="450.12" from="-E4" to="E5"/>
	<trip id="605" depart="451.16" from="-E6" to="E0"/>
	<trip id="182" depart="451.74" from="-E4" to="E5"/>
	<trip id="606" depart="454.43" from="-E6" to="E0"/>
	<trip id="607" depart="455.25" from="-E6" to="E0"/>
	<trip id="183" depart="456.70" from="-E4" to="E5"/>
	<trip id="608" depart="456.94" from="-E6" to="E0"/>
	<trip id="184" depart="457.65" from="-E4" to="E5"/>
	<trip id="185" depart="459.37" from="-E4" to="E5"/>
	<trip id="611" depart="461.92" from="-E6" to="E0"/>
	<trip id="610" depart="462.46" from="-E6" to="E0"/>
	<trip id="609" depart="462.61" from="-E6" to="E0"/>
	<trip id="186" depart="465.41" from="-E4" to="E5"/>
	<trip id="612" depart="467.58" from="-E6" to="E0"/>
	<trip id="187" depart="467.59" from="-E4" to="E5"/>
	<trip id="188" depart="469.30" from="-E4" to="E5"/>
	<trip id="189" depart="469.58" from="-E4" to="E5"/>
	<trip id="613" depart="470.09" from="-E6" to="E0"/>
	<trip id="614" depart="471.76" from="-E6" to="E0"/>
	<trip id="191" depart="473.84" from="-E4" to="E5"/>
	<trip id="190" depart="474.21" from="-E4" to="E5"/>
	<trip id="615" depart="474.29" from="-E6" to="E0"/>
	<trip id="616" depart="477.14" from="-E6" to="E0"/>
	<trip id="192" depart="477.74" from="-E4" to="E5"/>
	<trip id="193" depart="480.39" from="-E4" to="E5"/>
	<trip id="618" depart="480.41" from="-E6" to="E0"/>
	<trip id="194" depart="480.81" from="-E4" to="E5"/>
	<trip id="617" depart="481.26" from="-E6" to="E0"/>
	<trip id="619" depart="485.24" from="-E6" to="E0"/>
	<trip id="195" depart="485.27" from="-E4" to="E5"/>
	<trip id="620" depart="486.30" from="-E6" to="E0"/>
	<trip id="197" depart="486.89" from="-E4" to="E5"/>
	<trip id="196" depart="487.53" from="-E4" to="E5"/>
	<trip id="622" depart="490.75" from="-E6" to="E0"/>
	<trip id="623" depart="492.31" from="-E6" to="E0"/>
	<trip id="198" depart="493.14" from="-E4" to="E5"/>
	<trip id="621" depart="493.96" from="-E6" to="E0"/>
	<trip id="200" depart="495.00" from="-E4" to="E5"/>
	<trip id="199" depart="496.09" from="-E4" to="E5"/>
	<trip id="201" depart="498.41" from="-E4" to="E5"/>
	<trip id="624" depart="499.29" from="-E6" to="E0"/>
	<trip id="625" depart="499.80" from="-E6" to="E0"/>
	<trip id="626" depart="502.24" from="-E6" to="E0"/>
	<trip id="202" depart="505.18" from="-E4" to="E5"/>
	<trip id="628" depart="506.70" from="-E6" to="E0"/>
	<trip id="203" depart="506.92" from="-E4" to="E5"/>
	<trip id="627" depart="507.91" from="-E6" to="E0"/>
	<trip id="204" depart="509.65" from="-E4" to="E5"/>
	<trip id="205" depart="510.64" from="-E4" to="E5"/>
	<trip id="629" depart="510.79" from="-E6" to="E0"/>
	<trip id="630" depart="512.00" from="-E6" to="E0"/>
	<trip id="206" depart="512.03" from="-E4" to="E5"/>
	<trip id="207" depart="512.57" from="-E4" to="E5"/>
	<trip id="632" depart="513.69" from="-E6" to="E0"/>
	<trip id="631" depart="514.52" from="-E6" to="E0"/>
	<trip id="208" depart="517.58" from="-E4" to="E5"/>
	<trip id="633" depart="521.29" from="-E6" to="E0"/>
	<trip id="634" depart="521.38" from="-E6" to="E0"/>
	<trip id="210" depart="521.42" from="-E4" to="E5"/>
	<trip id="209" depart="522.06" from="-E4" to="E5"/>
	<trip id="635" depart="524.64" from="-E6" to="E0"/>
	<trip id="212" depart="526.10" from="-E4" to="E5"/>
	<trip id="636" depart="526.71" from="-E6" to="E0"/>
	<trip id="211" depart="526.87" from="-E4" to="E5"/>
	<trip id="213" depart="529.56" from="-E4" to="E5"/>
	<trip id="637" depart="530.42" from="-E6" to="E0"/>
	<trip id="638" depart="531.49" from="-E6" to="E0"/>
	<trip id="214" depart="533.06" from="-E4" to="E5"/>
	<trip id="639" depart="534.49" from="-E6" to="E0"/>
	<trip id="215" depart="534.65" from="-E4" to="E5"/>
	<trip id="640" depart="535.19" from="-E6" to="E0"/>
	<trip id="216" depart="535.66" from="-E4" to="E5"/>
	<trip id="641" depart="538.56" from="-E6" to="E0"/>
	<trip id="217" depart="538.99" from="-E4" to="E5"/>
	<trip id="219" depart="544.81" from="-E4" to="E5"/>
	<trip id="642" depart="545.14" from="-E6" to="E0"/>
	<trip id="218" depart="545.37" from="-E4" to="E5"/>
	<trip id="643" depart="545.50" from="-E6" to="E0"/>
	<trip id="644" depart="545.89" from="-E6" to="E0"/>
	<trip id="220" depart="547.38" from="-E4" to="E5"/>
	<trip id="645" depart="548.76" from="-E6" to="E0"/>
	<trip id="646" depart="549.68" from="-E6" to="E0"/>
	<trip id="221" depart="551.85" from="-E4" to="E5"/>
	<trip id="222" depart="554.14" from="-E4" to="E5"/>
	<trip id="223" depart="555.55" from="-E4" to="E5"/>
	<trip id="647" depart="556.46" from="-E6" to="E0"/>
	<trip id="224" depart="558.64" from="-E4" to="E5"/>
	<trip id="225" depart="559.48" from="-E4" to="E5"/>
	<trip id="649" depart="559.81" from="-E6" to="E0"/>
	<trip id="648" depart="560.10" from="-E6" to="E0"/>
	<trip id="226" depart="562.40" from="-E4" to="E5"/>
	<trip id="650" depart="562.52" from="-E6" to="E0"/>
	<trip id="227" depart="563.29" from="-E4" to="E5"/>
	<trip id="651" depart="566.30" from="-E6" to="E0"/>
	<trip id="652" depart="566.83" from="-E6" to="E0"/>
	<trip id="228" depart="568.13" from="-E4" to="E5"/>
	<trip id="653" depart="570.19" from="-E6" to="E0"/>
	<trip id="230" depart="570.73" from="-E4" to="E5"/>
	<trip id="229" depart="570.97" from="-E4" to="E5"/>
	<trip id="654" depart="573.82" from="-E6" to="E0"/>
	<trip id="231" depart="575.93" from="-E4" to="E5"/>
	<trip id="655" depart="576.87" from="-E6" to="E0"/>
	<trip id="657" depart="577.52" from="-E6" to="E0"/>
	<trip id="232" depart="577.64" from="-E4" to="E5"/>
	<trip id="233" depart="578.24" from="-E4" to="E5"/>
	<trip id="656" depart="578.49" from="-E6" to="E0"/>
	<trip id="423" depart="578.51" from="-E5" to="E4"/>
	<trip id="234" depart="581.43" from="-E4" to="E5"/>
	<trip id="658" depart="584.26" from="-E6" to="E0"/>
	<trip id="235" depart="585.71" from="-E4" to="E5"/>
	<trip id="236" depart="586.88" from="-E4" to="E5"/>
	<trip id="659" depart="587.87" from="-E6" to="E0"/>
	<trip id="660" depart="588.01" from="-E6" to="E0"/>
	<trip id="237" depart="589.16" from="-E4" to="E5"/>
	<trip id="661" depart="590.08" from="-E6" to="E0"/>
	<trip id="238" depart="591.69" from="-E4" to="E5"/>
	<trip id="239" depart="593.49" from="-E4" to="E5"/>
	<trip id="662" depart="594.09" from="-E6" to="E0"/>
	<trip id="663" depart="595.59" from="-E6" to="E0"/>
	<trip id="241" depart="598.98" from="-E4" to="E5"/>
	<trip id="664" depart="599.14" from="-E6" to="E0"/>
	<trip id="242" depart="599.70" from="-E4" to="E5"/>
	<trip id="665" depart="599.88" from="-E6" to="E0"/>
	<trip id="240" depart="600.26" from="-E4" to="E5"/>
	<trip id="667" depart="605.17" from="-E6" to="E0"/>
	<trip id="666" depart="605.43" from="-E6" to="E0"/>
	<trip id="243" depart="605.63" from="-E4" to="E5"/>
	<trip id="668" depart="607.17" from="-E6" to="E0"/>
	<trip id="245" depart="607.25" from="-E4" to="E5"/>
	<trip id="244" depart="607.29" from="-E4" to="E5"/>
	<trip id="669" depart="608.29" from="-E6" to="E0"/>
	<trip id="246" depart="612.59" from="-E4" to="E5"/>
	<trip id="670" depart="612.63" from="-E6" to="E0"/>
	<trip id="247" depart="613.76" from="-E4" to="E5"/>
	<trip id="671" depart="615.50" from="-E6" to="E0"/>
	<trip id="673" depart="617.16" from="-E6" to="E0"/>
	<trip id="249" depart="618.46" from="-E4" to="E5"/>
	<trip id="248" depart="619.00" from="-E4" to="E5"/>
	<trip id="672" depart="619.07" from="-E6" to="E0"/>
	<trip id="674" depart="620.39" from="-E6" to="E0"/>
	<trip id="250" depart="622.12" from="-E4" to="E5"/>
	<trip id="676" depart="624.74" from="-E6" to="E0"/>
	<trip id="675" depart="625.62" from="-E6" to="E0"/>
	<trip id="251" depart="627.75" from="-E4" to="E5"/>
	<trip id="252" depart="628.42" from="-E4" to="E5"/>
	<trip id="678" depart="628.85" from="-E6" to="E0"/>
	<trip id="253" depart="629.67" from="-E4" to="E5"/>
	<trip id="677" depart="629.75" from="-E6" to="E0"/>
	<trip id="254" depart="632.72" from="-E4" to="E5"/>
	<trip id="255" depart="634.12" from="-E4" to="E5"/>
	<trip id="256" depart="637.44" from="-E4" to="E5"/>
	<trip id="679" depart="638.54" from="-E6" to="E0"/>
	<trip id="257" depart="638.74" from="-E4" to="E5"/>
	<trip id="258" depart="640.34" from="-E4" to="E5"/>
	<trip id="680" depart="640.51" from="-E6" to="E0"/>
	<trip id="681" depart="640.52" from="-E6" to="E0"/>
	<trip id="682" depart="641.56" from="-E6" to="E0"/>
	<trip id="683" depart="642.78" from="-E6" to="E0"/>
	<trip id="259" depart="644.13" from="-E4" to="E5"/>
	<trip id="261" depart="646.62" from="-E4" to="E5"/>
	<trip id="260" depart="646.93" from="-E4" to="E5"/>
	<trip id="684" depart="648.05" from="-E6" to="E0"/>
	<trip id="685" depart="648.23" from="-E6" to="E0"/>
	<trip id="687" depart="651.47" from="-E6" to="E0"/>
	<trip id="686" depart="655.81" from="-E6" to="E0"/>
	<trip id="262" depart="656.62" from="-E4" to="E5"/>
	<trip id="264" depart="656.77" from="-E4" to="E5"/>
	<trip id="263" depart="656.79" from="-E4" to="E5"/>
	<trip id="688" depart="657.00" from="-E6" to="E0"/>
	<trip id="689" depart="657.70" from="-E6" to="E0"/>
	<trip id="265" depart="660.16" from="-E4" to="E5"/>
	<trip id="266" depart="663.29" from="-E4" to="E5"/>
	<trip id="690" depart="663.45" from="-E6" to="E0"/>
	<trip id="691" depart="664.15" from="-E6" to="E0"/>
	<trip id="267" depart="666.64" from="-E4" to="E5"/>
	<trip id="692" depart="667.95" from="-E6" to="E0"/>
	<trip id="268" depart="668.82" from="-E4" to="E5"/>
	<trip id="269" depart="669.26" from="-E4" to="E5"/>
	<trip id="693" depart="669.61" from="-E6" to="E0"/>
	<trip id="695" depart="672.20" from="-E6" to="E0"/>
	<trip id="694" depart="672.81" from="-E6" to="E0"/>
	<trip id="271" depart="674.30" from="-E4" to="E5"/>
	<trip id="696" depart="674.99" from="-E6" to="E0"/>
	<trip id="270" depart="674.99" from="-E4" to="E5"/>
	<trip id="272" depart="678.46" from="-E4" to="E5"/>
	<trip id="273" depart="679.14" from="-E4" to="E5"/>
	<trip id="698" depart="679.18" from="-E6" to="E0"/>
	<trip id="274" depart="679.25" from="-E4" to="E5"/>
	<trip id="697" depart="681.24" from="-E6" to="E0"/>
	<trip id="275" depart="684.65" from="-E4" to="E5"/>
	<trip id="699" depart="686.93" from="-E6" to="E0"/>
	<trip id="700" depart="687.71" from="-E6" to="E0"/>