<?xml version="1.0" encoding="UTF-8"?>

<!-- generated on 2026-01-06T17:04:53.773183+07:00 by Eclipse SUMO netedit 1.25.0
-->

<routes xmlns:xsi="http://www.w3.org/2001/XMLSchema-instance" xsi:noNamespaceSchemaLocation="http://sumo.dlr.de/xsd/routes_file.xsd">
    <!-- Vehicles, persons and containers (sorted by depart) -->
    <trip id="5" depart="20.00" from="-E5" to="E0" via="-E2"/>
    <trip id="1" depart="40.00" from="-E0" to="E5" via="E2"/>
    <trip id="2" depart="60.00" from="-E5" to="E0" via="-E2"/>
    <trip id="0" depart="80.00" from="-E0" to="E5" via="E2"/>
    <trip id="4" depart="100.00" from="-E5" to="E0" via="-E2"/>
</routes>
