<?xml version="1.0" encoding="UTF-8"?>

<!-- generated on 2025-12-22T09:24:59.005247+07:00 by Eclipse SUMO netedit 1.25.0
<neteditConfiguration xmlns:xsi="http://www.w3.org/2001/XMLSchema-instance" xsi:noNamespaceSchemaLocation="http://sumo.dlr.de/xsd/neteditConfiguration.xsd">

    <input>
        <sumo-net-file value="C:\Phi\Work\SimulationData\Crowded\network.net.xml"/>
    </input>

    <output>
        <output-file value="C:\Phi\Work\SimulationData\Crowded\network.net.xml"/>
    </output>

    <processing>
        <geometry.min-radius.fix.railways value="false"/>
        <geometry.avoid-overlap value="false"/>
        <geometry.max-grade.fix value="false"/>
        <offset.disable-normalization value="true"/>
        <lefthand value="0"/>
    </processing>

    <junctions>
        <no-turnarounds value="true"/>
        <junctions.corner-detail value="5"/>
        <junctions.limit-turn-speed value="5.50"/>
        <rectangular-lane-cut value="0"/>
    </junctions>

    <pedestrian>
        <walkingareas value="0"/>
    </pedestrian>

</neteditConfiguration>
-->

<net version="1.20" junctionCornerDetail="5" limitTurnSpeed="5.50" avoidOverlap="0" xmlns:xsi="http://www.w3.org/2001/XMLSchema-instance" xsi:noNamespaceSchemaLocation="http://sumo.dlr.de/xsd/net_file.xsd">

    <location netOffset="0.00,0.00" convBoundary="-148.04,-64.10,205.33,81.51" origBoundary="-10000000000.00,-10000000000.00,10000000000.00,10000000000.00" projParameter="!"/>

    <edge id=":J1_0" function="internal">
        <lane id=":J1_0_0" index="0" speed="6.57" length="9.16" shape="3.73,15.20 1.24,15.55 -0.55,16.61 -1.63,18.37 -2.01,20.84"/>
    </edge>
    <edge id=":J1_1" function="internal">
        <lane id=":J1_1_0" index="0" speed="13.89" length="27.39" shape="3.73,12.00 -23.66,11.82"/>
    </edge>
    <edge id=":J1_2" function="internal">
        <lane id=":J1_2_0" index="0" speed="10.38" length="12.14" shape="3.73,8.80 -2.92,7.84 -7.56,5.04"/>
    </edge>
    <edge id=":J1_12" function="internal">
        <lane id=":J1_12_0" index="0" speed="10.38" length="12.47" shape="-7.56,5.04 -7.67,4.97 -10.52,0.18 -11.46,-6.52"/>
    </edge>
    <edge id=":J1_3" function="internal">
        <lane id=":J1_3_0" index="0" speed="6.53" length="9.11" shape="-1.86,-6.50 -1.51,-4.01 -0.46,-2.23 1.28,-1.16 3.73,-0.80"/>
    </edge>
    <edge id=":J1_4" function="internal">
        <lane id=":J1_4_0" index="0" speed="13.89" length="27.32" shape="-5.06,-6.51 -5.21,20.81"/>
    </edge>
    <edge id=":J1_5" function="internal">
        <lane id=":J1_5_0" index="0" speed="10.35" length="12.15" shape="-8.26,-6.51 -9.23,0.18 -12.02,4.79"/>
    </edge>
    <edge id=":J1_13" function="internal">
        <lane id=":J1_13_0" index="0" speed="10.35" length="12.50" shape="-12.02,4.79 -12.11,4.94 -16.91,7.75 -23.61,8.62"/>
    </edge>
    <edge id=":J1_6" function="internal">
        <lane id=":J1_6_0" index="0" speed="6.48" length="9.03" shape="-23.49,-0.98 -21.03,-1.30 -19.27,-2.33 -18.21,-4.07 -17.86,-6.53"/>
    </edge>
    <edge id=":J1_7" function="internal">
        <lane id=":J1_7_0" index="0" speed="13.89" length="27.26" shape="-23.53,2.22 3.73,2.40"/>
    </edge>
    <edge id=":J1_8" function="internal">
        <lane id=":J1_8_0" index="0" speed="10.39" length="12.08" shape="-23.57,5.42 -16.88,6.45 -12.35,9.22"/>
    </edge>
    <edge id=":J1_14" function="internal">
        <lane id=":J1_14_0" index="0" speed="10.39" length="12.51" shape="-12.35,9.22 -12.13,9.36 -9.30,14.14 -8.41,20.78"/>
    </edge>
    <edge id=":J1_9" function="internal">
        <lane id=":J1_9_0" index="0" speed="6.55" length="9.15" shape="-18.01,20.69 -18.35,18.23 -19.41,16.47 -21.19,15.40 -23.70,15.02"/>
    </edge>
    <edge id=":J1_10" function="internal">
        <lane id=":J1_10_0" index="0" speed="13.89" length="27.24" shape="-14.81,20.72 -14.66,-6.52"/>
    </edge>
    <edge id=":J1_11" function="internal">
        <lane id=":J1_11_0" index="0" speed="10.41" length="12.02" shape="-11.61,20.75 -10.60,14.12 -7.82,9.59"/>
    </edge>
    <edge id=":J1_15" function="internal">
        <lane id=":J1_15_0" index="0" speed="10.41" length="12.52" shape="-7.82,9.59 -7.70,9.39 -2.92,6.55 3.73,5.60"/>
    </edge>
    <edge id=":J3_0" function="internal">
        <lane id=":J3_0_0" index="0" speed="6.71" length="9.51" shape="127.42,14.95 124.86,15.34 123.02,16.46 121.90,18.30 121.50,20.88"/>
    </edge>
    <edge id=":J3_1" function="internal">
        <lane id=":J3_1_0" index="0" speed="13.89" length="27.45" shape="127.39,11.75 99.94,11.90"/>
    </edge>
    <edge id=":J3_2" function="internal">
        <lane id=":J3_2_0" index="0" speed="10.35" length="12.14" shape="127.36,8.55 120.66,7.66 116.03,4.92"/>
    </edge>
    <edge id=":J3_12" function="internal">
        <lane id=":J3_12_0" index="0" speed="10.35" length="12.48" shape="116.03,4.92 115.88,4.83 113.01,0.07 112.06,-6.62"/>
    </edge>
    <edge id=":J3_3" function="internal">
        <lane id=":J3_3_0" index="0" speed="6.49" length="9.03" shape="121.66,-6.61 122.01,-4.16 123.06,-2.41 124.81,-1.38 127.27,-1.05"/>
    </edge>
    <edge id=":J3_4" function="internal">
        <lane id=":J3_4_0" index="0" speed="13.89" length="27.46" shape="118.46,-6.62 118.30,20.84"/>
    </edge>
    <edge id=":J3_5" function="internal">
        <lane id=":J3_5_0" index="0" speed="10.41" length="12.19" shape="115.26,-6.62 114.30,0.08 111.50,4.73"/>
    </edge>
    <edge id=":J3_13" function="internal">
        <lane id=":J3_13_0" index="0" speed="10.41" length="12.51" shape="111.50,4.73 111.42,4.86 106.64,7.73 99.94,8.70"/>
    </edge>
    <edge id=":J3_6" function="internal">
        <lane id=":J3_6_0" index="0" speed="6.58" length="9.23" shape="99.93,-0.90 102.43,-1.26 104.22,-2.34 105.30,-4.12 105.66,-6.62"/>
    </edge>
    <edge id=":J3_7" function="internal">
        <lane id=":J3_7_0" index="0" speed="13.89" length="27.37" shape="99.93,2.30 127.30,2.15"/>
    </edge>
    <edge id=":J3_8" function="internal">
        <lane id=":J3_8_0" index="0" speed="10.35" length="12.04" shape="99.93,5.50 106.63,6.45 111.15,9.17"/>
    </edge>
    <edge id=":J3_14" function="internal">
        <lane id=":J3_14_0" index="0" speed="10.35" length="12.61" shape="111.15,9.17 111.39,9.32 114.22,14.10 115.10,20.81"/>
    </edge>
    <edge id=":J3_9" function="internal">
        <lane id=":J3_9_0" index="0" speed="6.48" length="9.03" shape="105.51,20.71 105.18,18.25 104.15,16.50 102.40,15.45 99.95,15.10"/>
    </edge>
    <edge id=":J3_10" function="internal">
        <lane id=":J3_10_0" index="0" speed="13.89" length="27.36" shape="108.71,20.74 108.86,-6.62"/>
    </edge>
    <edge id=":J3_11" function="internal">
        <lane id=":J3_11_0" index="0" speed="10.49" length="12.12" shape="111.91,20.78 112.93,14.08 115.71,9.51"/>
    </edge>
    <edge id=":J3_15" function="internal">
        <lane id=":J3_15_0" index="0" speed="10.49" length="12.65" shape="115.71,9.51 115.84,9.28 120.64,6.37 127.33,5.35"/>
    </edge>

    <edge id="-E0" from="J0" to="J1" priority="-1">
        <lane id="-E0_0" index="0" speed="13.89" length="124.46" shape="-147.93,-2.65 -23.49,-0.98"/>
        <lane id="-E0_1" index="1" speed="13.89" length="124.46" shape="-147.98,0.55 -23.53,2.22"/>
        <lane id="-E0_2" index="2" speed="13.89" length="124.46" shape="-148.02,3.75 -23.57,5.42"/>
    </edge>
    <edge id="-E1" from="J2" to="J1" priority="-1" shape="-10.37,81.51 -10.02,21.63 -9.88,7.20">
        <lane id="-E1_0" index="0" speed="13.89" length="60.77" shape="-18.37,81.46 -18.02,21.58 -18.01,20.69"/>
        <lane id="-E1_1" index="1" speed="13.89" length="60.77" shape="-15.17,81.48 -14.82,21.60 -14.81,20.72"/>
        <lane id="-E1_2" index="2" speed="13.89" length="60.77" shape="-11.97,81.50 -11.62,21.62 -11.61,20.75"/>
    </edge>
    <edge id="-E2" from="J3" to="J1" priority="-1" shape="113.65,7.08 16.69,7.20 -9.88,7.20">
        <lane id="-E2_0" index="0" speed="13.89" length="96.21" shape="99.95,15.10 16.70,15.20 3.73,15.20"/>
        <lane id="-E2_1" index="1" speed="13.89" length="96.21" shape="99.94,11.90 16.69,12.00 3.73,12.00"/>
        <lane id="-E2_2" index="2" speed="13.89" length="96.21" shape="99.94,8.70 16.69,8.80 3.73,8.80"/>
    </edge>
    <edge id="-E3" from="J4" to="J1" priority="-1">
        <lane id="-E3_0" index="0" speed="13.89" length="57.59" shape="-1.77,-64.09 -1.86,-6.50"/>
        <lane id="-E3_1" index="1" speed="13.89" length="57.59" shape="-4.97,-64.09 -5.06,-6.51"/>
        <lane id="-E3_2" index="2" speed="13.89" length="57.59" shape="-8.17,-64.10 -8.26,-6.51"/>
    </edge>
    <edge id="-E4" from="J5" to="J3" priority="-1">
        <lane id="-E4_0" index="0" speed="13.89" length="57.20" shape="104.90,77.91 105.51,20.71"/>
        <lane id="-E4_1" index="1" speed="13.89" length="57.20" shape="108.10,77.94 108.71,20.74"/>
        <lane id="-E4_2" index="2" speed="13.89" length="57.20" shape="111.30,77.97 111.91,20.78"/>
    </edge>
    <edge id="-E5" from="J6" to="J3" priority="-1">
        <lane id="-E5_0" index="0" speed="13.89" length="77.99" shape="205.41,14.20 127.42,14.95"/>
        <lane id="-E5_1" index="1" speed="13.89" length="77.99" shape="205.38,11.00 127.39,11.75"/>
        <lane id="-E5_2" index="2" speed="13.89" length="77.99" shape="205.35,7.80 127.36,8.55"/>
    </edge>
    <edge id="-E6" from="J7" to="J3" priority="-1">
        <lane id="-E6_0" index="0" speed="13.89" length="56.04" shape="121.69,-62.66 121.66,-6.61"/>
        <lane id="-E6_1" index="1" speed="13.89" length="56.04" shape="118.49,-62.66 118.46,-6.62"/>
        <lane id="-E6_2" index="2" speed="13.89" length="56.04" shape="115.29,-62.66 115.26,-6.62"/>
    </edge>
    <edge id="E0" from="J1" to="J0" priority="-1">
        <lane id="E0_0" index="0" speed="13.89" length="124.46" shape="-23.70,15.02 -148.15,13.35"/>
        <lane id="E0_1" index="1" speed="13.89" length="124.46" shape="-23.66,11.82 -148.10,10.15"/>
        <lane id="E0_2" index="2" speed="13.89" length="124.46" shape="-23.61,8.62 -148.06,6.95"/>
    </edge>
    <edge id="E1" from="J1" to="J2" priority="-1" shape="-9.88,7.20 -10.02,21.63 -10.37,81.51">
        <lane id="E1_0" index="0" speed="13.89" length="60.73" shape="-2.01,20.84 -2.02,21.69 -2.37,81.56"/>
        <lane id="E1_1" index="1" speed="13.89" length="60.73" shape="-5.21,20.81 -5.22,21.67 -5.57,81.54"/>
        <lane id="E1_2" index="2" speed="13.89" length="60.73" shape="-8.41,20.78 -8.42,21.64 -8.77,81.52"/>
    </edge>
    <edge id="E2" from="J1" to="J3" priority="-1" shape="-9.88,7.20 16.69,7.20 113.65,7.08">
        <lane id="E2_0" index="0" speed="13.89" length="96.20" shape="3.73,-0.80 16.69,-0.80 99.93,-0.90"/>
        <lane id="E2_1" index="1" speed="13.89" length="96.20" shape="3.73,2.40 16.69,2.40 99.93,2.30"/>
        <lane id="E2_2" index="2" speed="13.89" length="96.20" shape="3.73,5.60 16.69,5.60 99.93,5.50"/>
    </edge>
    <edge id="E3" from="J1" to="J4" priority="-1">
        <lane id="E3_0" index="0" speed="13.89" length="57.59" shape="-17.86,-6.53 -17.77,-64.11"/>
        <lane id="E3_1" index="1" speed="13.89" length="57.59" shape="-14.66,-6.52 -14.57,-64.11"/>
        <lane id="E3_2" index="2" speed="13.89" length="57.59" shape="-11.46,-6.52 -11.37,-64.10"/>
    </edge>
    <edge id="E4" from="J3" to="J5" priority="-1">
        <lane id="E4_0" index="0" speed="13.89" length="57.20" shape="121.50,20.88 120.90,78.07"/>
        <lane id="E4_1" index="1" speed="13.89" length="57.20" shape="118.30,20.84 117.70,78.04"/>
        <lane id="E4_2" index="2" speed="13.89" length="57.20" shape="115.10,20.81 114.50,78.01"/>
    </edge>
    <edge id="E5" from="J3" to="J6" priority="-1">
        <lane id="E5_0" index="0" speed="13.89" length="77.99" shape="127.27,-1.05 205.25,-1.80"/>
        <lane id="E5_1" index="1" speed="13.89" length="77.99" shape="127.30,2.15 205.28,1.40"/>
        <lane id="E5_2" index="2" speed="13.89" length="77.99" shape="127.33,5.35 205.31,4.60"/>
    </edge>
    <edge id="E6" from="J3" to="J7" priority="-1">
        <lane id="E6_0" index="0" speed="13.89" length="56.04" shape="105.66,-6.62 105.69,-62.66"/>
        <lane id="E6_1" index="1" speed="13.89" length="56.04" shape="108.86,-6.62 108.89,-62.66"/>
        <lane id="E6_2" index="2" speed="13.89" length="56.04" shape="112.06,-6.62 112.09,-62.66"/>
    </edge>

    <tlLogic id="J1" type="static" programID="0" offset="0">
        <phase duration="33" state="GrrGGgGrrGGg"/>
        <phase duration="3"  state="yrryygyrryyg"/>
        <phase duration="6"  state="rrrrrGrrrrrG"/>
        <phase duration="3"  state="rrrrryrrrrry"/>
        <phase duration="33" state="GGgGrrGGgGrr"/>
        <phase duration="3"  state="yygyrryygyrr"/>
        <phase duration="6"  state="rrGrrrrrGrrr"/>
        <phase duration="3"  state="rryrrrrryrrr"/>
    </tlLogic>
    <tlLogic id="J3" type="static" programID="0" offset="0">
        <phase duration="33" state="GGgGrrGGgGrr"/>
        <phase duration="3"  state="yygyrryygyrr"/>
        <phase duration="6"  state="rrGrrrrrGrrr"/>
        <phase duration="3"  state="rryrrrrryrrr"/>
        <phase duration="33" state="GrrGGgGrrGGg"/>
        <phase duration="3"  state="yrryygyrryyg"/>
        <phase duration="6"  state="rrrrrGrrrrrG"/>
        <phase duration="3"  state="rrrrryrrrrry"/>
    </tlLogic>

    <junction id="J0" type="dead_end" x="-148.04" y="5.35" incLanes="E0_0 E0_1 E0_2" intLanes="" shape="-148.04,5.35 -148.17,14.95 -148.04,5.35"/>
    <junction id="J1" type="traffic_light" x="-9.88" y="7.20" incLanes="-E2_0 -E2_1 -E2_2 -E3_0 -E3_1 -E3_2 -E0_0 -E0_1 -E0_2 -E1_0 -E1_1 -E1_2" intLanes=":J1_0_0 :J1_1_0 :J1_12_0 :J1_3_0 :J1_4_0 :J1_13_0 :J1_6_0 :J1_7_0 :J1_14_0 :J1_9_0 :J1_10_0 :J1_15_0" shape="3.73,16.80 3.73,-2.40 1.51,-2.86 0.74,-3.42 0.18,-4.22 -0.15,-5.25 -0.26,-6.50 -19.46,-6.53 -19.91,-4.31 -20.46,-3.54 -21.24,-3.00 -22.24,-2.68 -23.46,-2.58 -23.72,16.62 -21.42,17.09 -20.62,17.66 -20.05,18.44 -19.71,19.45 -19.61,20.67 -0.41,20.86 0.07,18.60 0.64,17.81 1.45,17.25 2.48,16.91">
        <request index="0"  response="000000000000" foes="000000000000" cont="0"/>
        <request index="1"  response="110000010000" foes="110100010000" cont="0"/>
        <request index="2"  response="100010110000" foes="100010110000" cont="1"/>
        <request index="3"  response="000000000000" foes="000000000000" cont="0"/>
        <request index="4"  response="000000000100" foes="100010000110" cont="0"/>
        <request index="5"  response="010100000100" foes="010110000100" cont="1"/>
        <request index="6"  response="000000000000" foes="000000000000" cont="0"/>
        <request index="7"  response="010000110000" foes="010000110100" cont="0"/>
        <request index="8"  response="110000100010" foes="110000100010" cont="1"/>
        <request index="9"  response="000000000000" foes="000000000000" cont="0"/>
        <request index="10" response="000100000000" foes="000110100010" cont="0"/>
        <request index="11" response="000100010100" foes="000100010110" cont="1"/>
    </junction>
    <junction id="J2" type="dead_end" x="-10.37" y="81.51" incLanes="E1_0 E1_1 E1_2" intLanes="" shape="-10.37,81.51 -0.77,81.57 -10.37,81.51"/>
    <junction id="J3" type="traffic_light" x="113.65" y="7.08" incLanes="-E5_0 -E5_1 -E5_2 -E6_0 -E6_1 -E6_2 E2_0 E2_1 E2_2 -E4_0 -E4_1 -E4_2" intLanes=":J3_0_0 :J3_1_0 :J3_12_0 :J3_3_0 :J3_4_0 :J3_13_0 :J3_6_0 :J3_7_0 :J3_14_0 :J3_9_0 :J3_10_0 :J3_15_0" shape="127.44,16.55 127.26,-2.65 125.03,-3.07 124.26,-3.62 123.70,-4.39 123.37,-5.39 123.26,-6.61 104.06,-6.62 103.60,-4.34 103.02,-3.54 102.22,-2.96 101.19,-2.62 99.92,-2.50 99.95,16.70 102.17,17.14 102.94,17.69 103.48,18.47 103.81,19.47 103.91,20.69 123.10,20.89 123.61,18.50 124.21,17.66 125.05,17.05 126.13,16.68">
        <request index="0"  response="000000000000" foes="000000000000" cont="0"/>
        <request index="1"  response="100000000000" foes="110100010000" cont="0"/>
        <request index="2"  response="100010100000" foes="100010110000" cont="1"/>
        <request index="3"  response="000000000000" foes="000000000000" cont="0"/>
        <request index="4"  response="000010000110" foes="100010000110" cont="0"/>
        <request index="5"  response="010110000100" foes="010110000100" cont="1"/>
        <request index="6"  response="000000000000" foes="000000000000" cont="0"/>
        <request index="7"  response="000000100000" foes="010000110100" cont="0"/>
        <request index="8"  response="100000100010" foes="110000100010" cont="1"/>
        <request index="9"  response="000000000000" foes="000000000000" cont="0"/>
        <request index="10" response="000110000010" foes="000110100010" cont="0"/>
        <request index="11" response="000100010110" foes="000100010110" cont="1"/>
    </junction>
    <junction id="J4" type="dead_end" x="-9.77" y="-64.10" incLanes="E3_0 E3_1 E3_2" intLanes="" shape="-9.77,-64.10 -19.37,-64.11 -9.77,-64.10"/>
    <junction id="J5" type="dead_end" x="112.90" y="77.99" incLanes="E4_0 E4_1 E4_2" intLanes="" shape="112.90,77.99 122.50,78.09 112.90,77.99"/>
    <junction id="J6" type="dead_end" x="205.33" y="6.20" incLanes="E5_0 E5_1 E5_2" intLanes="" shape="205.33,6.20 205.24,-3.40 205.33,6.20"/>
    <junction id="J7" type="dead_end" x="113.69" y="-62.66" incLanes="E6_0 E6_1 E6_2" intLanes="" shape="113.69,-62.66 104.09,-62.67 113.69,-62.66"/>

    <junction id=":J1_12_0" type="internal" x="-7.56" y="5.04" incLanes=":J1_2_0 -E0_1" intLanes=":J1_4_0 :J1_5_0 :J1_7_0 :J1_11_0"/>
    <junction id=":J1_13_0" type="internal" x="-12.02" y="4.79" incLanes=":J1_5_0 -E1_1" intLanes=":J1_2_0 :J1_7_0 :J1_8_0 :J1_10_0"/>
    <junction id=":J1_14_0" type="internal" x="-12.35" y="9.22" incLanes=":J1_8_0 -E2_1" intLanes=":J1_1_0 :J1_5_0 :J1_10_0 :J1_11_0"/>
    <junction id=":J1_15_0" type="internal" x="-7.82" y="9.59" incLanes=":J1_11_0 -E3_1" intLanes=":J1_1_0 :J1_2_0 :J1_4_0 :J1_8_0"/>
    <junction id=":J3_12_0" type="internal" x="116.03" y="4.92" incLanes=":J3_2_0 E2_1" intLanes=":J3_4_0 :J3_5_0 :J3_7_0 :J3_11_0"/>
    <junction id=":J3_13_0" type="internal" x="111.50" y="4.73" incLanes=":J3_5_0 -E4_1" intLanes=":J3_2_0 :J3_7_0 :J3_8_0 :J3_10_0"/>
    <junction id=":J3_14_0" type="internal" x="111.15" y="9.17" incLanes=":J3_8_0 -E5_1" intLanes=":J3_1_0 :J3_5_0 :J3_10_0 :J3_11_0"/>
    <junction id=":J3_15_0" type="internal" x="115.71" y="9.51" incLanes=":J3_11_0 -E6_1" intLanes=":J3_1_0 :J3_2_0 :J3_4_0 :J3_8_0"/>

    <connection from="-E0" to="E3" fromLane="0" toLane="0" via=":J1_6_0" tl="J1" linkIndex="6" dir="r" state="O"/>
    <connection from="-E0" to="E2" fromLane="1" toLane="1" via=":J1_7_0" tl="J1" linkIndex="7" dir="s" state="o"/>
    <connection from="-E0" to="E1" fromLane="2" toLane="2" via=":J1_8_0" tl="J1" linkIndex="8" dir="l" state="o"/>
    <connection from="-E1" to="E0" fromLane="0" toLane="0" via=":J1_9_0" tl="J1" linkIndex="9" dir="r" state="O"/>
    <connection from="-E1" to="E3" fromLane="1" toLane="1" via=":J1_10_0" tl="J1" linkIndex="10" dir="s" state="O"/>
    <connection from="-E1" to="E2" fromLane="2" toLane="2" via=":J1_11_0" tl="J1" linkIndex="11" dir="l" state="o"/>
    <connection from="-E2" to="E1" fromLane="0" toLane="0" via=":J1_0_0" tl="J1" linkIndex="0" dir="r" state="O"/>
    <connection from="-E2" to="E0" fromLane="1" toLane="1" via=":J1_1_0" tl="J1" linkIndex="1" dir="s" state="o"/>
    <connection from="-E2" to="E3" fromLane="2" toLane="2" via=":J1_2_0" tl="J1" linkIndex="2" dir="l" state="o"/>
    <connection from="-E3" to="E2" fromLane="0" toLane="0" via=":J1_3_0" tl="J1" linkIndex="3" dir="r" state="O"/>
    <connection from="-E3" to="E1" fromLane="1" toLane="1" via=":J1_4_0" tl="J1" linkIndex="4" dir="s" state="O"/>
    <connection from="-E3" to="E0" fromLane="2" toLane="2" via=":J1_5_0" tl="J1" linkIndex="5" dir="l" state="o"/>
    <connection from="-E4" to="-E2" fromLane="0" toLane="0" via=":J3_9_0" tl="J3" linkIndex="9" dir="r" state="O"/>
    <connection from="-E4" to="E6" fromLane="1" toLane="1" via=":J3_10_0" tl="J3" linkIndex="10" dir="s" state="o"/>
    <connection from="-E4" to="E5" fromLane="2" toLane="2" via=":J3_11_0" tl="J3" linkIndex="11" dir="l" state="o"/>
    <connection from="-E5" to="E4" fromLane="0" toLane="0" via=":J3_0_0" tl="J3" linkIndex="0" dir="r" state="O"/>
    <connection from="-E5" to="-E2" fromLane="1" toLane="1" via=":J3_1_0" tl="J3" linkIndex="1" dir="s" state="O"/>
    <connection from="-E5" to="E6" fromLane="2" toLane="2" via=":J3_2_0" tl="J3" linkIndex="2" dir="l" state="o"/>
    <connection from="-E6" to="E5" fromLane="0" toLane="0" via=":J3_3_0" tl="J3" linkIndex="3" dir="r" state="O"/>
    <connection from="-E6" to="E4" fromLane="1" toLane="1" via=":J3_4_0" tl="J3" linkIndex="4" dir="s" state="o"/>
    <connection from="-E6" to="-E2" fromLane="2" toLane="2" via=":J3_5_0" tl="J3" linkIndex="5" dir="l" state="o"/>
    <connection from="E2" to="E6" fromLane="0" toLane="0" via=":J3_6_0" tl="J3" linkIndex="6" dir="r" state="O"/>
    <connection from="E2" to="E5" fromLane="1" toLane="1" via=":J3_7_0" tl="J3" linkIndex="7" dir="s" state="O"/>
    <connection from="E2" to="E4" fromLane="2" toLane="2" via=":J3_8_0" tl="J3" linkIndex="8" dir="l" state="o"/>

    <connection from=":J1_0" to="E1" fromLane="0" toLane="0" dir="r" state="M"/>
    <connection from=":J1_1" to="E0" fromLane="0" toLane="1" dir="s" state="M"/>
    <connection from=":J1_2" to="E3" fromLane="0" toLane="2" via=":J1_12_0" dir="l" state="m"/>
    <connection from=":J1_12" to="E3" fromLane="0" toLane="2" dir="l" state="M"/>
    <connection from=":J1_3" to="E2" fromLane="0" toLane="0" dir="r" state="M"/>
    <connection from=":J1_4" to="E1" fromLane="0" toLane="1" dir="s" state="M"/>
    <connection from=":J1_5" to="E0" fromLane="0" toLane="2" via=":J1_13_0" dir="l" state="m"/>
    <connection from=":J1_13" to="E0" fromLane="0" toLane="2" dir="l" state="M"/>
    <connection from=":J1_6" to="E3" fromLane="0" toLane="0" dir="r" state="M"/>
    <connection from=":J1_7" to="E2" fromLane="0" toLane="1" dir="s" state="M"/>
    <connection from=":J1_8" to="E1" fromLane="0" toLane="2" via=":J1_14_0" dir="l" state="m"/>
    <connection from=":J1_14" to="E1" fromLane="0" toLane="2" dir="l" state="M"/>
    <connection from=":J1_9" to="E0" fromLane="0" toLane="0" dir="r" state="M"/>
    <connection from=":J1_10" to="E3" fromLane="0" toLane="1" dir="s" state="M"/>
    <connection from=":J1_11" to="E2" fromLane="0" toLane="2" via=":J1_15_0" dir="l" state="m"/>
    <connection from=":J1_15" to="E2" fromLane="0" toLane="2" dir="l" state="M"/>
    <connection from=":J3_0" to="E4" fromLane="0" toLane="0" dir="r" state="M"/>
    <connection from=":J3_1" to="-E2" fromLane="0" toLane="1" dir="s" state="M"/>
    <connection from=":J3_2" to="E6" fromLane="0" toLane="2" via=":J3_12_0" dir="l" state="m"/>
    <connection from=":J3_12" to="E6" fromLane="0" toLane="2" dir="l" state="M"/>
    <connection from=":J3_3" to="E5" fromLane="0" toLane="0" dir="r" state="M"/>
    <connection from=":J3_4" to="E4" fromLane="0" toLane="1" dir="s" state="M"/>
    <connection from=":J3_5" to="-E2" fromLane="0" toLane="2" via=":J3_13_0" dir="l" state="m"/>
    <connection from=":J3_13" to="-E2" fromLane="0" toLane="2" dir="l" state="M"/>
    <connection from=":J3_6" to="E6" fromLane="0" toLane="0" dir="r" state="M"/>
    <connection from=":J3_7" to="E5" fromLane="0" toLane="1" dir="s" state="M"/>
    <connection from=":J3_8" to="E4" fromLane="0" toLane="2" via=":J3_14_0" dir="l" state="m"/>
    <connection from=":J3_14" to="E4" fromLane="0" toLane="2" dir="l" state="M"/>
    <connection from=":J3_9" to="-E2" fromLane="0" toLane="0" dir="r" state="M"/>
    <connection from=":J3_10" to="E6" fromLane="0" toLane="1" dir="s" state="M"/>
    <connection from=":J3_11" to="E5" fromLane="0" toLane="2" via=":J3_15_0" dir="l" state="m"/>
    <connection from=":J3_15" to="E5" fromLane="0" toLane="2" dir="l" state="M"/>

</net>
