<?xml version="1.0" ?>
<routes xmlns:xsi="http://www.w3.org/2001/XMLSchema-instance" xsi:noNamespaceSchemaLocation="http://sumo.dlr.de/xsd/routes_file.xsd">
	<trip id="4" depart="0.00" from="-E2" to="E0"/>
	<trip id="16" depart="0.00" from="-E6" to="E4"/>
	<trip id="20" depart="0.00" from="-E4" to="E3"/>
	<trip id="24" depart="0.00" from="-E4" to="E5"/>
	<trip id="28" depart="0.00" from="-E4" to="E1"/>
	<trip id="36" depart="0.00" from="-E5" to="E6"/>
	<trip id="37" depart="0.00" from="-E5" to="E6"/>
	<trip id="40" depart="0.00" from="-E5" to="E3"/>
	<trip id="48" depart="0.00" from="-E0" to="E3"/>
	<trip id="52" depart="0.00" from="-E0" to="E1"/>
	<trip id="136" depart="0.00" from="-E5" to="E0"/>
	<trip id="140" depart="0.00" from="-E3" to="E1"/>
	<trip id="149" depart="0.00" from="-E6" to="E3"/>
	<trip id="152" depart="0.00" from="-E5" to="E4"/>
	<trip id="236" depart="0.00" from="-E6" to="E1"/>
	<trip id="248" depart="0.00" from="-E3" to="E0"/>
	<trip id="256" depart="0.00" from="-E0" to="E2"/>
	<trip id="0" depart="0.73" from="-E6" to="E0"/>
	<trip id="137" depart="2.57" from="-E5" to="E0"/>
	<trip id="158" depart="3.73" from="-E6" to="E5"/>
	<trip id="156" depart="3.73" from="-E6" to="E5"/>
	<trip id="157" depart="4.07" from="-E6" to="E5"/>
	<trip id="55" depart="4.48" from="-E0" to="E1"/>
	<trip id="54" depart="5.31" from="-E0" to="E1"/>
	<trip id="159" depart="5.43" from="-E6" to="E5"/>
	<trip id="53" depart="5.51" from="-E0" to="E1"/>
	<trip id="257" depart="7.54" from="-E0" to="E2"/>
	<trip id="160" depart="8.07" from="-E6" to="E5"/>
	<trip id="56" depart="8.66" from="-E0" to="E1"/>
	<trip id="8" depart="9.36" from="-E3" to="E2"/>
	<trip id="244" depart="9.60" from="-E2" to="E3"/>
	<trip id="148" depart="10.55" from="-E6" to="E3"/>
	<trip id="161" depart="11.10" from="-E6" to="E5"/>
	<trip id="58" depart="12.03" from="-E0" to="E1"/>
	<trip id="57" depart="12.12" from="-E0" to="E1"/>
	<trip id="162" depart="12.33" from="-E6" to="E5"/>
	<trip id="32" depart="12.50" from="-E4" to="E6"/>
	<trip id="163" depart="16.22" from="-E6" to="E5"/>
	<trip id="59" depart="17.26" from="-E0" to="E1"/>
	<trip id="164" depart="18.77" from="-E6" to="E5"/>
	<trip id="240" depart="19.29" from="-E2" to="E1"/>
	<trip id="253" depart="20.95" from="-E1" to="E0"/>
	<trip id="165" depart="21.37" from="-E6" to="E5"/>
	<trip id="132" depart="21.64" from="-E4" to="E0"/>
	<trip id="60" depart="21.83" from="-E0" to="E1"/>
	<trip id="62" depart="22.27" from="-E0" to="E1"/>
	<trip id="241" depart="22.73" from="-E2" to="E1"/>
	<trip id="61" depart="25.44" from="-E0" to="E1"/>
	<trip id="166" depart="26.63" from="-E6" to="E5"/>
	<trip id="63" depart="27.77" from="-E0" to="E1"/>
	<trip id="167" depart="30.16" from="-E6" to="E5"/>
	<trip id="64" depart="30.81" from="-E0" to="E1"/>
	<trip id="168" depart="30.91" from="-E6" to="E5"/>
	<trip id="65" depart="32.53" from="-E0" to="E1"/>
	<trip id="12" depart="33.30" from="-E1" to="E2"/>
	<trip id="169" depart="33.51" from="-E6" to="E5"/>
	<trip id="144" depart="33.56" from="-E1" to="E3"/>
	<trip id="66" depart="33.67" from="-E0" to="E1"/>
	<trip id="171" depart="34.00" from="-E6" to="E5"/>
	<trip id="33" depart="35.51" from="-E4" to="E6"/>
	<trip id="170" depart="36.19" from="-E6" to="E5"/>
	<trip id="67" depart="36.28" from="-E0" to="E1"/>
	<trip id="237" depart="38.24" from="-E6" to="E1"/>
	<trip id="172" depart="38.91" from="-E6" to="E5"/>
	<trip id="44" depart="39.09" from="-E5" to="E1"/>
	<trip id="68" depart="40.47" from="-E0" to="E1"/>
	<trip id="14" depart="40.49" from="-E1" to="E2"/>
	<trip id="49" depart="40.49" from="-E0" to="E3"/>
	<trip id="17" depart="40.67" from="-E6" to="E4"/>
	<trip id="154" depart="41.02" from="-E5" to="E4"/>
	<trip id="69" depart="41.63" from="-E0" to="E1"/>
	<trip id="71" depart="43.90" from="-E0" to="E1"/>
	<trip id="174" depart="44.00" from="-E6" to="E5"/>
	<trip id="70" depart="44.48" from="-E0" to="E1"/>
	<trip id="173" depart="45.94" from="-E6" to="E5"/>
	<trip id="175" depart="45.95" from="-E6" to="E5"/>
	<trip id="133" depart="46.09" from="-E4" to="E0"/>
	<trip id="252" depart="46.70" from="-E1" to="E0"/>
	<trip id="146" depart="48.04" from="-E1" to="E3"/>
	<trip id="73" depart="48.98" from="-E0" to="E1"/>
	<trip id="72" depart="49.45" from="-E0" to="E1"/>
	<trip id="46" depart="50.64" from="-E5" to="E1"/>
	<trip id="176" depart="51.71" from="-E6" to="E5"/>
	<trip id="177" depart="52.46" from="-E6" to="E5"/>
	<trip id="153" depart="52.73" from="-E5" to="E4"/>
	<trip id="25" depart="53.48" from="-E4" to="E5"/>
	<trip id="145" depart="53.62" from="-E1" to="E3"/>
	<trip id="74" depart="54.80" from="-E0" to="E1"/>
	<trip id="5" depart="55.68" from="-E2" to="E0"/>
	<trip id="178" depart="56.10" from="-E6" to="E5"/>
	<trip id="75" depart="57.90" from="-E0" to="E1"/>
	<trip id="179" depart="58.31" from="-E6" to="E5"/>
	<trip id="76" depart="60.76" from="-E0" to="E1"/>
	<trip id="180" depart="60.97" from="-E6" to="E5"/>
	<trip id="38" depart="61.19" from="-E5" to="E6"/>
	<trip id="181" depart="62.17" from="-E6" to="E5"/>
	<trip id="13" depart="63.66" from="-E1" to="E2"/>
	<trip id="77" depart="64.23" from="-E0" to="E1"/>
	<trip id="78" depart="65.08" from="-E0" to="E1"/>
	<trip id="182" depart="65.37" from="-E6" to="E5"/>
	<trip id="183" depart="68.44" from="-E6" to="E5"/>
	<trip id="80" depart="68.96" from="-E0" to="E1"/>
	<trip id="79" depart="69.49" from="-E0" to="E1"/>
	<trip id="249" depart="70.42" from="-E3" to="E0"/>
	<trip id="41" depart="71.52" from="-E5" to="E3"/>
	<trip id="184" depart="71.77" from="-E6" to="E5"/>
	<trip id="186" depart="72.68" from="-E6" to="E5"/>
	<trip id="82" depart="73.23" from="-E0" to="E1"/>
	<trip id="250" depart="73.92" from="-E3" to="E0"/>
	<trip id="185" depart="74.90" from="-E6" to="E5"/>
	<trip id="10" depart="75.22" from="-E3" to="E2"/>
	<trip id="187" depart="75.27" from="-E6" to="E5"/>
	<trip id="81" depart="75.35" from="-E0" to="E1"/>
	<trip id="22" depart="75.50" from="-E4" to="E3"/>
	<trip id="242" depart="75.59" from="-E2" to="E1"/>
	<trip id="83" depart="75.91" from="-E0" to="E1"/>
	<trip id="84" depart="77.98" from="-E0" to="E1"/>
	<trip id="189" depart="80.47" from="-E6" to="E5"/>
	<trip id="21" depart="81.24" from="-E4" to="E3"/>
	<trip id="29" depart="81.25" from="-E4" to="E1"/>
	<trip id="141" depart="81.31" from="-E3" to="E1"/>
	<trip id="1" depart="81.77" from="-E6" to="E0"/>
	<trip id="34" depart="81.84" from="-E4" to="E6"/>
	<trip id="188" depart="82.23" from="-E6" to="E5"/>
	<trip id="245" depart="82.58" from="-E2" to="E3"/>
	<trip id="9" depart="82.81" from="-E3" to="E2"/>
	<trip id="85" depart="84.72" from="-E0" to="E1"/>
	<trip id="87" depart="85.87" from="-E0" to="E1"/>
	<trip id="190" depart="85.91" from="-E6" to="E5"/>
	<trip id="86" depart="86.68" from="-E0" to="E1"/>
	<trip id="191" depart="86.85" from="-E6" to="E5"/>
	<trip id="88" depart="88.05" from="-E0" to="E1"/>
	<trip id="6" depart="91.63" from="-E2" to="E0"/>
	<trip id="192" depart="91.71" from="-E6" to="E5"/>
	<trip id="89" depart="92.93" from="-E0" to="E1"/>
	<trip id="135" depart="94.03" from="-E4" to="E0"/>
	<trip id="193" depart="94.43" from="-E6" to="E5"/>
	<trip id="195" depart="95.05" from="-E6" to="E5"/>
	<trip id="90" depart="96.51" from="-E0" to="E1"/>
	<trip id="194" depart="97.52" from="-E6" to="E5"/>
	<trip id="238" depart="98.06" from="-E6" to="E1"/>
	<trip id="196" depart="98.23" from="-E6" to="E5"/>
	<trip id="91" depart="98.35" from="-E0" to="E1"/>
	<trip id="92" depart="99.64" from="-E0" to="E1"/>
	<trip id="45" depart="102.92" from="-E5" to="E1"/>
	<trip id="93" depart="103.76" from="-E0" to="E1"/>
	<trip id="197" depart="103.82" from="-E6" to="E5"/>
	<trip id="2" depart="104.49" from="-E6" to="E0"/>
	<trip id="246" depart="104.68" from="-E2" to="E3"/>
	<trip id="199" depart="104.90" from="-E6" to="E5"/>
	<trip id="94" depart="105.79" from="-E0" to="E1"/>
	<trip id="198" depart="106.82" from="-E6" to="E5"/>
	<trip id="247" depart="107.59" from="-E2" to="E3"/>
	<trip id="96" depart="108.86" from="-E0" to="E1"/>
	<trip id="95" depart="109.48" from="-E0" to="E1"/>
	<trip id="200" depart="110.04" from="-E6" to="E5"/>
	<trip id="30" depart="112.83" from="-E4" to="E1"/>
	<trip id="201" depart="113.65" from="-E6" to="E5"/>
	<trip id="97" depart="115.56" from="-E0" to="E1"/>
	<trip id="98" depart="115.99" from="-E0" to="E1"/>
	<trip id="99" depart="116.27" from="-E0" to="E1"/>
	<trip id="203" depart="116.40" from="-E6" to="E5"/>
	<trip id="35" depart="116.43" from="-E4" to="E6"/>
	<trip id="202" depart="116.64" from="-E6" to="E5"/>
	<trip id="204" depart="117.18" from="-E6" to="E5"/>
	<trip id="100" depart="118.50" from="-E0" to="E1"/>
	<trip id="26" depart="118.65" from="-E4" to="E5"/>
	<trip id="18" depart="120.96" from="-E6" to="E4"/>
	<trip id="205" depart="121.84" from="-E6" to="E5"/>
	<trip id="101" depart="122.16" from="-E0" to="E1"/>
	<trip id="103" depart="123.38" from="-E0" to="E1"/>
	<trip id="206" depart="124.34" from="-E6" to="E5"/>
	<trip id="42" depart="126.40" from="-E5" to="E3"/>
	<trip id="31" depart="127.05" from="-E4" to="E1"/>
	<trip id="150" depart="127.10" from="-E6" to="E3"/>
	<trip id="102" depart="127.40" from="-E0" to="E1"/>
	<trip id="50" depart="128.23" from="-E0" to="E3"/>
	<trip id="138" depart="128.32" from="-E5" to="E0"/>
	<trip id="143" depart="129.00" from="-E3" to="E1"/>
	<trip id="207" depart="129.39" from="-E6" to="E5"/>
	<trip id="47" depart="129.54" from="-E5" to="E1"/>
	<trip id="104" depart="129.63" from="-E0" to="E1"/>
	<trip id="105" depart="130.12" from="-E0" to="E1"/>
	<trip id="106" depart="130.53" from="-E0" to="E1"/>
	<trip id="208" depart="133.20" from="-E6" to="E5"/>
	<trip id="142" depart="133.21" from="-E3" to="E1"/>
	<trip id="210" depart="133.63" from="-E6" to="E5"/>
	<trip id="209" depart="135.10" from="-E6" to="E5"/>
	<trip id="23" depart="135.93" from="-E4" to="E3"/>
	<trip id="211" depart="136.36" from="-E6" to="E5"/>
	<trip id="212" depart="137.53" from="-E6" to="E5"/>
	<trip id="107" depart="138.19" from="-E0" to="E1"/>
	<trip id="258" depart="139.11" from="-E0" to="E2"/>
	<trip id="108" depart="139.13" from="-E0" to="E1"/>
	<trip id="251" depart="140.63" from="-E3" to="E0"/>
	<trip id="213" depart="140.68" from="-E6" to="E5"/>
	<trip id="109" depart="141.12" from="-E0" to="E1"/>
	<trip id="255" depart="141.91" from="-E1" to="E0"/>
	<trip id="51" depart="142.90" from="-E0" to="E3"/>
	<trip id="147" depart="144.09" from="-E1" to="E3"/>
	<trip id="216" depart="146.98" from="-E6" to="E5"/>
	<trip id="110" depart="147.26" from="-E0" to="E1"/>
	<trip id="111" depart="147.72" from="-E0" to="E1"/>
	<trip id="214" depart="148.12" from="-E6" to="E5"/>
	<trip id="215" depart="148.75" from="-E6" to="E5"/>
	<trip id="43" depart="149.26" from="-E5" to="E3"/>
	<trip id="112" depart="149.67" from="-E0" to="E1"/>
	<trip id="217" depart="149.72" from="-E6" to="E5"/>
	<trip id="243" depart="150.88" from="-E2" to="E1"/>
	<trip id="155" depart="151.55" from="-E5" to="E4"/>
	<trip id="134" depart="151.87" from="-E4" to="E0"/>
	<trip id="254" depart="154.25" from="-E1" to="E0"/>
	<trip id="113" depart="155.38" from="-E0" to="E1"/>
	<trip id="114" depart="155.49" from="-E0" to="E1"/>
	<trip id="115" depart="157.69" from="-E0" to="E1"/>
	<trip id="218" depart="158.01" from="-E6" to="E5"/>
	<trip id="219" depart="158.54" from="-E6" to="E5"/>
	<trip id="39" depart="159.92" from="-E5" to="E6"/>
	<trip id="116" depart="160.11" from="-E0" to="E1"/>
	<trip id="11" depart="160.24" from="-E3" to="E2"/>
	<trip id="220" depart="160.49" from="-E6" to="E5"/>
	<trip id="3" depart="160.87" from="-E6" to="E0"/>
	<trip id="139" depart="161.13" from="-E5" to="E0"/>
	<trip id="118" depart="164.70" from="-E0" to="E1"/>
	<trip id="117" depart="164.70" from="-E0" to="E1"/>
	<trip id="221" depart="164.80" from="-E6" to="E5"/>
	<trip id="222" depart="166.56" from="-E6" to="E5"/>
	<trip id="223" depart="167.90" from="-E6" to="E5"/>
	<trip id="151" depart="169.51" from="-E6" to="E3"/>
	<trip id="119" depart="169.62" from="-E0" to="E1"/>
	<trip id="225" depart="171.01" from="-E6" to="E5"/>
	<trip id="224" depart="171.06" from="-E6" to="E5"/>
	<trip id="120" depart="171.36" from="-E0" to="E1"/>
	<trip id="121" depart="171.94" from="-E0" to="E1"/>
	<trip id="122" depart="175.02" from="-E0" to="E1"/>
	<trip id="15" depart="175.43" from="-E1" to="E2"/>
	<trip id="226" depart="175.81" from="-E6" to="E5"/>
	<trip id="227" depart="177.03" from="-E6" to="E5"/>
	<trip id="123" depart="177.14" from="-E0" to="E1"/>
	<trip id="259" depart="178.58" from="-E0" to="E2"/>
	<trip id="124" depart="178.68" from="-E0" to="E1"/>
	<trip id="228" depart="180.92" from="-E6" to="E5"/>
	<trip id="125" depart="184.70" from="-E0" to="E1"/>
	<trip id="229" depart="184.97" from="-E6" to="E5"/>
	<trip id="126" depart="185.72" from="-E0" to="E1"/>
	<trip id="127" depart="187.14" from="-E0" to="E1"/>
	<trip id="230" depart="187.18" from="-E6" to="E5"/>
	<trip id="231" depart="187.23" from="-E6" to="E5"/>
	<trip id="232" depart="187.99" from="-E6" to="E5"/>
	<trip id="128" depart="188.91" from="-E0" to="E1"/>
	<trip id="129" depart="189.43" from="-E0" to="E1"/>
	<trip id="234" depart="192.62" from="-E6" to="E5"/>
	<trip id="233" depart="194.79" from="-E6" to="E5"/>
	<trip id="130" depart="195.17" from="-E0" to="E1"/>
	<trip id="131" depart="195.47" from="-E0" to="E1"/>
	<trip id="239" depart="197.49" from="-E6" to="E1"/>
	<trip id="235" depart="199.28" from="-E6" to="E5"/>
	<trip id="7" depart="199.99" from="-E2" to="E0"/>
	<trip id="19" depart="199.99" from="-E6" to="E4"/>
	<trip id="27" depart="199.99" from="-E4" to="E5"/>
	<trip id="264" depart="200.00" from="-E2" to="E0"/>
	<trip id="268" depart="200.00" from="-E3" to="E2"/>
	<trip id="272" depart="200.00" from="-E1" to="E2"/>
	<trip id="280" depart="200.00" from="-E4" to="E3"/>
	<trip id="284" depart="200.00" from="-E4" to="E5"/>
	<trip id="285" depart="200.00" from="-E4" to="E5"/>
	<trip id="300" depart="200.00" from="-E5" to="E3"/>
	<trip id="305" depart="200.00" from="-E5" to="E1"/>
	<trip id="312" depart="200.00" from="-E0" to="E1"/>
	<trip id="316" depart="200.00" from="-E4" to="E0"/>
	<trip id="324" depart="200.00" from="-E3" to="E1"/>
	<trip id="328" depart="200.00" from="-E1" to="E3"/>
	<trip id="332" depart="200.00" from="-E6" to="E3"/>
	<trip id="416" depart="200.00" from="-E6" to="E5"/>
	<trip id="420" depart="200.00" from="-E6" to="E1"/>
	<trip id="504" depart="200.00" from="-E2" to="E3"/>
	<trip id="506" depart="200.00" from="-E2" to="E3"/>
	<trip id="512" depart="200.00" from="-E1" to="E0"/>
	<trip id="336" depart="200.50" from="-E5" to="E4"/>
	<trip id="329" depart="200.51" from="-E1" to="E3"/>
	<trip id="500" depart="201.36" from="-E2" to="E1"/>
	<trip id="337" depart="201.83" from="-E5" to="E4"/>
	<trip id="421" depart="202.65" from="-E6" to="E1"/>
	<trip id="338" depart="204.67" from="-E5" to="E4"/>
	<trip id="423" depart="204.99" from="-E6" to="E1"/>
	<trip id="339" depart="207.20" from="-E5" to="E4"/>
	<trip id="340" depart="207.48" from="-E5" to="E4"/>
	<trip id="277" depart="207.90" from="-E6" to="E4"/>
	<trip id="422" depart="208.52" from="-E6" to="E1"/>
	<trip id="281" depart="209.65" from="-E4" to="E3"/>
	<trip id="341" depart="210.68" from="-E5" to="E4"/>
	<trip id="276" depart="211.41" from="-E6" to="E4"/>
	<trip id="424" depart="211.92" from="-E6" to="E1"/>
	<trip id="261" depart="212.69" from="-E6" to="E0"/>
	<trip id="425" depart="213.87" from="-E6" to="E1"/>
	<trip id="426" depart="214.72" from="-E6" to="E1"/>
	<trip id="342" depart="216.49" from="-E5" to="E4"/>
	<trip id="343" depart="216.54" from="-E5" to="E4"/>
	<trip id="427" depart="216.90" from="-E6" to="E1"/>
	<trip id="344" depart="217.31" from="-E5" to="E4"/>
	<trip id="428" depart="219.02" from="-E6" to="E1"/>
	<trip id="345" depart="221.33" from="-E5" to="E4"/>
	<trip id="429" depart="221.66" from="-E6" to="E1"/>
	<trip id="320" depart="222.16" from="-E5" to="E0"/>
	<trip id="430" depart="223.46" from="-E6" to="E1"/>
	<trip id="308" depart="224.21" from="-E0" to="E3"/>
	<trip id="346" depart="225.00" from="-E5" to="E4"/>
	<trip id="509" depart="225.51" from="-E3" to="E0"/>
	<trip id="296" depart="226.15" from="-E5" to="E6"/>
	<trip id="304" depart="226.29" from="-E5" to="E1"/>
	<trip id="431" depart="226.34" from="-E6" to="E1"/>
	<trip id="347" depart="227.50" from="-E5" to="E4"/>
	<trip id="325" depart="228.16" from="-E3" to="E1"/>
	<trip id="288" depart="228.20" from="-E4" to="E1"/>
	<trip id="348" depart="229.55" from="-E5" to="E4"/>
	<trip id="432" depart="234.10" from="-E6" to="E1"/>
	<trip id="349" depart="234.17" from="-E5" to="E4"/>
	<trip id="434" depart="234.67" from="-E6" to="E1"/>
	<trip id="433" depart="235.12" from="-E6" to="E1"/>
	<trip id="274" depart="236.05" from="-E1" to="E2"/>
	<trip id="351" depart="236.49" from="-E5" to="E4"/>
	<trip id="350" depart="236.63" from="-E5" to="E4"/>
	<trip id="273" depart="236.68" from="-E1" to="E2"/>
	<trip id="435" depart="237.00" from="-E6" to="E1"/>
	<trip id="436" depart="237.71" from="-E6" to="E1"/>
	<trip id="508" depart="238.89" from="-E3" to="E0"/>
	<trip id="352" depart="241.49" from="-E5" to="E4"/>
	<trip id="438" depart="241.86" from="-E6" to="E1"/>
	<trip id="353" depart="242.56" from="-E5" to="E4"/>
	<trip id="437" depart="242.91" from="-E6" to="E1"/>
	<trip id="354" depart="243.92" from="-E5" to="E4"/>
	<trip id="355" depart="245.28" from="-E5" to="E4"/>
	<trip id="356" depart="246.10" from="-E5" to="E4"/>
	<trip id="314" depart="246.49" from="-E0" to="E1"/>
	<trip id="357" depart="249.56" from="-E5" to="E4"/>
	<trip id="440" depart="249.65" from="-E6" to="E1"/>
	<trip id="292" depart="250.06" from="-E4" to="E6"/>
	<trip id="260" depart="250.82" from="-E6" to="E0"/>
	<trip id="441" depart="251.13" from="-E6" to="E1"/>
	<trip id="439" depart="251.64" from="-E6" to="E1"/>
	<trip id="321" depart="251.86" from="-E5" to="E0"/>
	<trip id="513" depart="252.21" from="-E1" to="E0"/>
	<trip id="442" depart="255.18" from="-E6" to="E1"/>
	<trip id="358" depart="255.42" from="-E5" to="E4"/>
	<trip id="313" depart="255.69" from="-E0" to="E1"/>
	<trip id="286" depart="257.16" from="-E4" to="E5"/>
	<trip id="359" depart="257.49" from="-E5" to="E4"/>
	<trip id="443" depart="257.73" from="-E6" to="E1"/>
	<trip id="360" depart="258.22" from="-E5" to="E4"/>
	<trip id="517" depart="258.65" from="-E0" to="E2"/>
	<trip id="301" depart="259.80" from="-E5" to="E3"/>
	<trip id="361" depart="260.09" from="-E5" to="E4"/>
	<trip id="445" depart="260.82" from="-E6" to="E1"/>
	<trip id="444" depart="262.18" from="-E6" to="E1"/>
	<trip id="333" depart="262.65" from="-E6" to="E3"/>
	<trip id="446" depart="263.41" from="-E6" to="E1"/>
	<trip id="362" depart="263.61" from="-E5" to="E4"/>
	<trip id="293" depart="265.31" from="-E4" to="E6"/>
	<trip id="363" depart="265.94" from="-E5" to="E4"/>
	<trip id="447" depart="266.44" from="-E6" to="E1"/>
	<trip id="297" depart="267.68" from="-E5" to="E6"/>
	<trip id="448" depart="268.76" from="-E6" to="E1"/>
	<trip id="364" depart="269.90" from="-E5" to="E4"/>
	<trip id="502" depart="270.07" from="-E2" to="E1"/>
	<trip id="365" depart="271.94" from="-E5" to="E4"/>
	<trip id="278" depart="272.96" from="-E6" to="E4"/>
	<trip id="309" depart="273.60" from="-E0" to="E3"/>
	<trip id="366" depart="273.90" from="-E5" to="E4"/>
	<trip id="450" depart="275.93" from="-E6" to="E1"/>
	<trip id="317" depart="276.01" from="-E4" to="E0"/>
	<trip id="449" depart="276.28" from="-E6" to="E1"/>
	<trip id="266" depart="276.67" from="-E2" to="E0"/>
	<trip id="367" depart="276.71" from="-E5" to="E4"/>
	<trip id="451" depart="277.35" from="-E6" to="E1"/>
	<trip id="368" depart="278.18" from="-E5" to="E4"/>
	<trip id="452" depart="278.63" from="-E6" to="E1"/>
	<trip id="282" depart="279.14" from="-E4" to="E3"/>
	<trip id="318" depart="280.83" from="-E4" to="E0"/>
	<trip id="334" depart="280.97" from="-E6" to="E3"/>
	<trip id="369" depart="281.50" from="-E5" to="E4"/>
	<trip id="453" depart="283.12" from="-E6" to="E1"/>
	<trip id="454" depart="284.15" from="-E6" to="E1"/>
	<trip id="516" depart="284.40" from="-E0" to="E2"/>
	<trip id="501" depart="284.60" from="-E2" to="E1"/>
	<trip id="455" depart="285.37" from="-E6" to="E1"/>
	<trip id="370" depart="285.41" from="-E5" to="E4"/>
	<trip id="295" depart="286.31" from="-E4" to="E6"/>
	<trip id="289" depart="286.76" from="-E4" to="E1"/>
	<trip id="265" depart="288.84" from="-E2" to="E0"/>
	<trip id="371" depart="288.91" from="-E5" to="E4"/>
	<trip id="456" depart="288.97" from="-E6" to="E1"/>
	<trip id="372" depart="289.33" from="-E5" to="E4"/>
	<trip id="310" depart="291.89" from="-E0" to="E3"/>
	<trip id="298" depart="292.70" from="-E5" to="E6"/>
	<trip id="457" depart="293.94" from="-E6" to="E1"/>
	<trip id="458" depart="294.04" from="-E6" to="E1"/>
	<trip id="373" depart="295.18" from="-E5" to="E4"/>
	<trip id="290" depart="295.82" from="-E4" to="E1"/>
	<trip id="510" depart="296.11" from="-E3" to="E0"/>
	<trip id="374" depart="296.34" from="-E5" to="E4"/>
	<trip id="375" depart="296.44" from="-E5" to="E4"/>
	<trip id="459" depart="296.65" from="-E6" to="E1"/>
	<trip id="417" depart="296.96" from="-E6" to="E5"/>
	<trip id="322" depart="297.49" from="-E5" to="E0"/>
	<trip id="460" depart="298.09" from="-E6" to="E1"/>
	<trip id="378" depart="301.56" from="-E5" to="E4"/>
	<trip id="418" depart="302.37" from="-E6" to="E5"/>
	<trip id="462" depart="302.91" from="-E6" to="E1"/>
	<trip id="376" depart="302.93" from="-E5" to="E4"/>
	<trip id="461" depart="303.28" from="-E6" to="E1"/>
	<trip id="377" depart="304.78" from="-E5" to="E4"/>
	<trip id="270" depart="307.51" from="-E3" to="E2"/>
	<trip id="463" depart="307.53" from="-E6" to="E1"/>
	<trip id="380" depart="308.49" from="-E5" to="E4"/>
	<trip id="379" depart="310.43" from="-E5" to="E4"/>
	<trip id="381" depart="311.26" from="-E5" to="E4"/>
	<trip id="464" depart="311.45" from="-E6" to="E1"/>
	<trip id="382" depart="311.54" from="-E5" to="E4"/>
	<trip id="299" depart="312.37" from="-E5" to="E6"/>
	<trip id="466" depart="312.98" from="-E6" to="E1"/>
	<trip id="303" depart="313.00" from="-E5" to="E3"/>
	<trip id="311" depart="313.36" from="-E0" to="E3"/>
	<trip id="465" depart="313.76" from="-E6" to="E1"/>
	<trip id="514" depart="315.11" from="-E1" to="E0"/>
	<trip id="262" depart="315.35" from="-E6" to="E0"/>
	<trip id="505" depart="316.86" from="-E2" to="E3"/>
	<trip id="384" depart="317.79" from="-E5" to="E4"/>
	<trip id="467" depart="318.06" from="-E6" to="E1"/>
	<trip id="383" depart="318.34" from="-E5" to="E4"/>
	<trip id="269" depart="319.23" from="-E3" to="E2"/>
	<trip id="294" depart="319.26" from="-E4" to="E6"/>
	<trip id="385" depart="322.51" from="-E5" to="E4"/>
	<trip id="469" depart="323.10" from="-E6" to="E1"/>
	<trip id="468" depart="324.45" from="-E6" to="E1"/>
	<trip id="470" depart="324.70" from="-E6" to="E1"/>
	<trip id="386" depart="324.76" from="-E5" to="E4"/>
	<trip id="471" depart="325.42" from="-E6" to="E1"/>
	<trip id="327" depart="326.31" from="-E3" to="E1"/>
	<trip id="387" depart="328.78" from="-E5" to="E4"/>
	<trip id="279" depart="330.46" from="-E6" to="E4"/>
	<trip id="388" depart="330.67" from="-E5" to="E4"/>
	<trip id="472" depart="331.26" from="-E6" to="E1"/>
	<trip id="306" depart="331.83" from="-E5" to="E1"/>
	<trip id="389" depart="332.28" from="-E5" to="E4"/>
	<trip id="323" depart="333.34" from="-E5" to="E0"/>
	<trip id="473" depart="333.79" from="-E6" to="E1"/>
	<trip id="319" depart="334.26" from="-E4" to="E0"/>
	<trip id="283" depart="334.47" from="-E4" to="E3"/>
	<trip id="474" depart="334.98" from="-E6" to="E1"/>
	<trip id="315" depart="336.26" from="-E0" to="E1"/>
	<trip id="271" depart="336.85" from="-E3" to="E2"/>
	<trip id="390" depart="337.16" from="-E5" to="E4"/>
	<trip id="518" depart="338.19" from="-E0" to="E2"/>
	<trip id="302" depart="339.77" from="-E5" to="E3"/>
	<trip id="475" depart="340.48" from="-E6" to="E1"/>
	<trip id="391" depart="340.54" from="-E5" to="E4"/>
	<trip id="511" depart="341.48" from="-E3" to="E0"/>
	<trip id="392" depart="341.60" from="-E5" to="E4"/>
	<trip id="476" depart="341.69" from="-E6" to="E1"/>
	<trip id="275" depart="341.70" from="-E1" to="E2"/>
	<trip id="477" depart="342.53" from="-E6" to="E1"/>
	<trip id="519" depart="343.41" from="-E0" to="E2"/>
	<trip id="394" depart="343.84" from="-E5" to="E4"/>
	<trip id="393" depart="344.21" from="-E5" to="E4"/>
	<trip id="478" depart="346.16" from="-E6" to="E1"/>
	<trip id="479" depart="346.75" from="-E6" to="E1"/>
	<trip id="307" depart="347.17" from="-E5" to="E1"/>
	<trip id="326" depart="347.32" from="-E3" to="E1"/>
	<trip id="396" depart="347.43" from="-E5" to="E4"/>
	<trip id="395" depart="347.82" from="-E5" to="E4"/>
	<trip id="291" depart="348.24" from="-E4" to="E1"/>
	<trip id="480" depart="351.19" from="-E6" to="E1"/>
	<trip id="397" depart="352.07" from="-E5" to="E4"/>
	<trip id="398" depart="353.24" from="-E5" to="E4"/>
	<trip id="481" depart="353.33" from="-E6" to="E1"/>
	<trip id="482" depart="355.23" from="-E6" to="E1"/>
	<trip id="399" depart="355.33" from="-E5" to="E4"/>
	<trip id="483" depart="356.31" from="-E6" to="E1"/>
	<trip id="515" depart="356.70" from="-E1" to="E0"/>
	<trip id="484" depart="359.08" from="-E6" to="E1"/>
	<trip id="400" depart="360.49" from="-E5" to="E4"/>
	<trip id="401" depart="363.67" from="-E5" to="E4"/>
	<trip id="485" depart="364.01" from="-E6" to="E1"/>
	<trip id="402" depart="364.60" from="-E5" to="E4"/>
	<trip id="403" depart="364.75" from="-E5" to="E4"/>
	<trip id="486" depart="365.06" from="-E6" to="E1"/>
	<trip id="330" depart="365.64" from="-E1" to="E3"/>
	<trip id="487" depart="366.89" from="-E6" to="E1"/>
	<trip id="488" depart="368.19" from="-E6" to="E1"/>
	<trip id="405" depart="370.57" from="-E5" to="E4"/>
	<trip id="404" depart="372.58" from="-E5" to="E4"/>
	<trip id="406" depart="372.97" from="-E5" to="E4"/>
	<trip id="489" depart="373.00" from="-E6" to="E1"/>
	<trip id="490" depart="373.41" from="-E6" to="E1"/>
	<trip id="267" depart="375.17" from="-E2" to="E0"/>
	<trip id="407" depart="376.28" from="-E5" to="E4"/>
	<trip id="491" depart="377.99" from="-E6" to="E1"/>
	<trip id="408" depart="378.62" from="-E5" to="E4"/>
	<trip id="507" depart="379.69" from="-E2" to="E3"/>
	<trip id="492" depart="380.99" from="-E6" to="E1"/>
	<trip id="409" depart="381.01" from="-E5" to="E4"/>
	<trip id="410" depart="382.07" from="-E5" to="E4"/>
	<trip id="263" depart="383.06" from="-E6" to="E0"/>
	<trip id="494" depart="383.72" from="-E6" to="E1"/>
	<trip id="493" depart="384.38" from="-E6" to="E1"/>
	<trip id="331" depart="384.97" from="-E1" to="E3"/>
	<trip id="419" depart="387.33" from="-E6" to="E5"/>
	<trip id="495" depart="387.72" from="-E6" to="E1"/>
	<trip id="411" depart="389.05" from="-E5" to="E4"/>
	<trip id="412" depart="391.80" from="-E5" to="E4"/>
	<trip id="413" depart="391.84" from="-E5" to="E4"/>
	<trip id="496" depart="391.92" from="-E6" to="E1"/>
	<trip id="414" depart="392.50" from="-E5" to="E4"/>
	<trip id="497" depart="394.91" from="-E6" to="E1"/>
	<trip id="503" depart="397.37" from="-E2" to="E1"/>
	<trip id="498" depart="397.51" from="-E6" to="E1"/>
	<trip id="499" depart="397.91" from="-E6" to="E1"/>
	<trip id="287" depart="399.99" from="-E4" to="E5"/>
	<trip id="335" depart="399.99" from="-E6" to="E3"/>
	<trip id="415" depart="399.99" from="-E5" to="E4"/>
	<trip id="524" depart="400.00" from="-E2" to="E0"/>
	<trip id="528" depart="400.00" from="-E3" to="E2"/>
	<trip id="532" depart="400.00" from="-E1" to="E2"/>
	<trip id="536" depart="400.00" from="-E6" to="E4"/>
	<trip id="544" depart="400.00" from="-E4" to="E5"/>
	<trip id="556" depart="400.00" from="-E5" to="E6"/>
	<trip id="636" depart="400.00" from="-E5" to="E3"/>
	<trip id="644" depart="400.00" from="-E0" to="E3"/>
	<trip id="724" depart="400.00" from="-E0" to="E1"/>
	<trip id="728" depart="400.00" from="-E4" to="E0"/>
	<trip id="740" depart="400.00" from="-E1" to="E3"/>
	<trip id="748" depart="400.00" from="-E5" to="E4"/>
	<trip id="760" depart="400.00" from="-E2" to="E1"/>
	<trip id="768" depart="400.00" from="-E3" to="E0"/>
	<trip id="772" depart="400.00" from="-E1" to="E0"/>
	<trip id="776" depart="400.00" from="-E0" to="E2"/>
	<trip id="777" depart="400.00" from="-E0" to="E2"/>
	<trip id="552" depart="402.01" from="-E4" to="E6"/>
	<trip id="557" depart="402.56" from="-E5" to="E6"/>
	<trip id="645" depart="403.05" from="-E0" to="E3"/>
	<trip id="529" depart="404.67" from="-E3" to="E2"/>
	<trip id="646" depart="405.56" from="-E0" to="E3"/>
	<trip id="756" depart="407.03" from="-E6" to="E1"/>
	<trip id="559" depart="407.63" from="-E5" to="E6"/>
	<trip id="648" depart="408.44" from="-E0" to="E3"/>
	<trip id="558" depart="408.74" from="-E5" to="E6"/>
	<trip id="560" depart="409.02" from="-E5" to="E6"/>
	<trip id="640" depart="409.22" from="-E5" to="E1"/>
	<trip id="540" depart="410.04" from="-E4" to="E3"/>
	<trip id="752" depart="410.08" from="-E6" to="E5"/>
	<trip id="769" depart="410.12" from="-E3" to="E0"/>
	<trip id="647" depart="410.14" from="-E0" to="E3"/>
	<trip id="561" depart="412.42" from="-E5" to="E6"/>
	<trip id="649" depart="414.83" from="-E0" to="E3"/>
	<trip id="749" depart="415.06" from="-E5" to="E4"/>
	<trip id="650" depart="415.82" from="-E0" to="E3"/>
	<trip id="562" depart="416.04" from="-E5" to="E6"/>
	<trip id="563" depart="418.36" from="-E5" to="E6"/>
	<trip id="653" depart="419.28" from="-E0" to="E3"/>
	<trip id="651" depart="419.30" from="-E0" to="E3"/>
	<trip id="652" depart="419.80" from="-E0" to="E3"/>
	<trip id="564" depart="420.77" from="-E5" to="E6"/>
	<trip id="732" depart="420.78" from="-E5" to="E0"/>
	<trip id="565" depart="422.60" from="-E5" to="E6"/>
	<trip id="764" depart="422.82" from="-E2" to="E3"/>
	<trip id="655" depart="425.67" from="-E0" to="E3"/>
	<trip id="566" depart="425.85" from="-E5" to="E6"/>
	<trip id="537" depart="426.25" from="-E6" to="E4"/>