<?xml version="1.0" encoding="UTF-8"?>

<!-- generated on 2026-01-09T09:37:12.649290+07:00 by Eclipse SUMO netedit 1.25.0
-->

<routes xmlns:xsi="http://www.w3.org/2001/XMLSchema-instance" xsi:noNamespaceSchemaLocation="http://sumo.dlr.de/xsd/routes_file.xsd">
    <!-- Vehicles, persons and containers (sorted by depart) -->
    <trip id="t_0" depart="50.00" from="-E0" to="E5" via="E2"/>
</routes>
